spectre -64 -plugin /share/instsww/cadence/LIBERATE/lib/lnx86_64_2.6/libSki.so +multiple -cp -ss -l -f nutascii +lqt 0 
2025/05/07 00:03:05 WARNING This OS does not appear to be a Cadence supported Linux configuration.
2025/05/07 00:03:05 For more info, please run CheckSysConf in <cdsRoot/tools.lnx86/bin/checkSysConf <productId>

Spectre (R) Circuit Simulator
Version 19.1.0.455.isr11 64bit -- 10 Sep 2020
Copyright (C) 1989-2020 Cadence Design Systems, Inc. All rights reserved
        worldwide. Cadence and Spectre are registered trademarks of Cadence
        Design Systems, Inc. All others are the property of their respective
        holders.

Includes RSA BSAFE(R) Cryptographic or Security Protocol Software from RSA
        Security, Inc.

User: eecs251b-aan   Host: eda-2.EECS.Berkeley.EDU   HostID: 2080912A   PID:
        3279796
Memory  available: 161.9537 GB  physical: 810.7772 GB
Linux   : Red Hat Enterprise Linux release 8.10 (Ootpa)
CPU Type: AMD EPYC 9454 48-Core Processor
        Socket: Processors [Frequency] (Hyperthreaded Processor)
        0:       0 [2622.8] (),  1 [3016.6] (),  2 [3799.8] (),  3 [1500.0] (),
        4 [1500.0] ()
                 5 [1500.0] (),  6 [2819.3] (),  7 [1500.0] (),  8 [1500.0] (),
        9 [3317.5] ()
                10 [1500.0] (), 11 [1500.0] (), 12 [2750.0] (), 13 [1500.0] (),
        14 [1500.0] ()
                15 [2554.4] (), 16 [3728.8] (), 17 [1500.0] (), 18 [1500.0] (),
        19 [1500.0] ()
                20 [1500.0] (), 21 [2100.0] (), 22 [1500.0] (), 23 [1500.0] (),
        24 [3516.5] ()
                25 [3490.0] (), 26 [1500.0] (), 27 [1500.0] (), 28 [1500.0] (),
        29 [3799.8] ()
                30 [2750.0] (), 31 [1500.0] (), 32 [1500.0] (), 33 [1500.0] (),
        34 [1500.0] ()
                35 [3799.8] (), 36 [1500.0] (), 37 [1500.0] (), 38 [2542.9] (),
        39 [3799.7] ()
                40 [2902.3] (), 41 [1500.0] (), 42 [1500.0] (), 43 [1500.0] (),
        44 [1500.0] ()
                45 [3076.7] (), 46 [3409.0] (), 47 [1500.0] (), 48 [1500.0] (),
        49 [1500.0] ()
                50 [2750.0] (), 51 [1500.0] (), 52 [1500.0] (), 53 [1500.0] (),
        54 [1500.0] ()
                55 [1500.0] (), 56 [1904.9] (), 57 [1500.0] (), 58 [3154.6] (),
        59 [1500.0] ()
                60 [3799.8] (), 61 [1500.0] (), 62 [1500.0] (), 63 [1500.0] (),
        64 [1500.0] ()
                65 [3799.8] (), 66 [3799.8] (), 67 [1500.0] (), 68 [1500.0] (),
        69 [3799.8] ()
                70 [1500.0] (), 71 [1500.0] (), 72 [2100.0] (), 73 [1500.0] (),
        74 [1500.0] ()
                75 [1500.0] (), 76 [1500.0] (), 77 [1500.0] (), 78 [3348.4] (),
        79 [1500.0] ()
                80 [1500.0] (), 81 [3799.8] (), 82 [1500.0] (), 83 [1500.0] (),
        84 [1500.0] ()
                85 [3647.1] (), 86 [1500.0] (), 87 [2100.0] (), 88 [1500.0] (),
        89 [3799.8] ()
                90 [1519.9] (), 91 [3509.9] (), 92 [3658.6] (), 93 [3031.5] (),
        94 [1500.0] ()
                95 [3799.8] ()
        
System load averages (1min, 5min, 15min) : 21.8 %, 21.3 %, 23.0 %
Hyperthreading is enabled


Simulating `stdin' on eda-2.EECS.Berkeley.EDU at 12:03:05 AM, Wed May 7, 2025
        (process id: 3279796).
Current working directory:
        /scratch/eda-4/eecs251b-aan/project/eecs251b_sp25_rx_ams_afe/characterization/altos.eda-2.EECS.Berkeley.EDU.T20250507000114673637S3264862.8

Notice from spectre.
    Loading plugin '/share/instsww/cadence/LIBERATE/lib/lnx86_64_2.6/libSki.so'
        ...

Reading file:  /dev/shm/netlistlScAUa
Reading file: 
        /share/instsww/cadence/LIBERATE/tools.lnx86/spectre/etc/configs/spectre.cfg
Time for NDB Parsing: CPU = 50.489 ms, elapsed = 11.1901 s.
Time accumulated: CPU = 130.511 ms, elapsed = 11.1901 s.
Peak resident memory used = 97.7 Mbytes.

Time for Elaboration: CPU = 13.865 ms, elapsed = 14.5168 ms.
Time accumulated: CPU = 144.448 ms, elapsed = 11.2047 s.
Peak resident memory used = 108 Mbytes.


Time for EDB Visiting: CPU = 1.432000e-03 s, elapsed = 1.435995e-03 s.
Time accumulated: CPU = 1.459590e-01 s, elapsed = 1.120623e+01 s.
Peak resident memory used = 1.09e+08 bytes.


Global user options:
               temp = -40
      preserve_inst = [ C229_0 C230_0 Vclk ]
           autostop = spice
             digits = 6
            measdgt = 6
           notation = sci
             ingold = sci
               save = nooutput

Scoped user options:

Circuit inventory:
              nodes 137
              bsim4 11    
          capacitor 106   
           resistor 125   
            vsource 7     

Analysis and control statement inventory:
               tran 1     

Output statements:
             .probe 0     
           .measure 0     
               save 0     


*************************************************************************
Transient Analysis `timeSweep': time = (0.000000e+00 s -> 1.000010e-07 s)
*************************************************************************

Notice from spectre during IC analysis, during transient analysis `timeSweep'.
    GminDC = 1.000000e-12 S is large enough to noticeably affect the DC
        solution.
        dV(net3#4) = -2.218021e-02 V
        Use the `gmin_check' option to eliminate or expand this report.

DC simulation time: CPU = 1.084000e-03 s, elapsed = 1.089811e-03 s.
Important parameter values:
    start = 0.000000e+00 s
    outputstart = 0.000000e+00 s
    stop = 1.000010e-07 s
    step = 1.000000e-12 s
    maxstep = 2.000020e-09 s
    ic = all
    useprevic = no
    skipdc = no
    reltol = 1.000000e-03
    abstol(V) = 1.000000e-06 V
    abstol(I) = 1.000000e-12 A
    temp = -4.000000e+01 C
    tnom = 2.700000e+01 C
    tempeffects = all
    errpreset = moderate
    method = traponly
    lteratio = 3.500000e+00
    relref = sigglobal
    cmin = 0.000000e+00 F
    gmin = 1.000000e-12 S


Output and IC/nodeset summary:
                 nodeset        2       


Notice from spectre at time = 4.479319e-10 s during transient analysis
        `timeSweep'.
    Found trapezoidal ringing on node Vclk:p.

......9......

Notice from spectre at time = 2.107396e-08 s during transient analysis
        `timeSweep'.
    Found trapezoidal ringing on node net1.

......9......8.

Notice from spectre at time = 2.307398e-08 s during transient analysis
        `timeSweep'.
    Found trapezoidal ringing on node net1.

......9......8..

Notice from spectre at time = 2.507400e-08 s during transient analysis
        `timeSweep'.
    Found trapezoidal ringing on node net1.

......9......8....

Notice from spectre at time = 2.707402e-08 s during transient analysis
        `timeSweep'.
    Found trapezoidal ringing on node net1.
        Further occurrences of this notice will be suppressed.

......9......8......7......6......5......4......3......2......1......0
Number of accepted tran steps =             125

Notice from spectre during transient analysis `timeSweep'.
    Trapezoidal ringing is detected during tran analysis.
        Please use method=trap for better results and performance.


Maximum value achieved for any signal of each quantity: 
V: V(net4#5) = 1.952e+00 V
I: I(VVSS:p) = 1.507e-04 A
If your circuit contains signals of the same quantity that are vastly different
        in size (such as high voltage circuitry combined with low voltage
        control circuitry), you should consider specifying global option
        `bin_relref=yes'.

~~~~~~~~~~~~~~~~~~~~~~~~~~~~~~~~~
Post-Transient Simulation Summary
~~~~~~~~~~~~~~~~~~~~~~~~~~~~~~~~~
   -   To further speed up simulation, consider
          add ++aps on command line
~~~~~~~~~~~~~~~~~~~~~~~~~~~~~~~~~


During simulation, the CPU load for active processors is :
         0 (19.6 %)      1 (40.2 %)      2 (79.3 %)      3 (20.7 %)
         4 (19.4 %)      5 (11.2 %)      6 (19.7 %)      7 (45.6 %)
         8 (38.3 %)      9 (25.4 %)     10 (24.9 %)     11 (15.2 %)
        12 (53.3 %)     13 (15.8 %)     14 (33.8 %)     15 (29.4 %)
        16 (11.6 %)     17 (53.8 %)     18 (46.3 %)     19 (5.3 %)
        20 (20.3 %)     21 (37.6 %)     22 (20.7 %)     23 (11.5 %)
        24 (7.5 %)      25 (15.8 %)     26 (10.3 %)     27 (10.5 %)
        28 (20.9 %)     29 (90.7 %)     30 (40.6 %)     31 (11.2 %)
        32 (58.1 %)     33 (31.9 %)     34 (10.3 %)     35 (23.2 %)
        36 (6.9 %)      37 (23.0 %)     38 (18.5 %)     39 (9.4 %)
        40 (15.7 %)     41 (51.3 %)     42 (19.6 %)     43 (24.5 %)
        44 (8.1 %)      45 (18.4 %)     46 (10.2 %)     47 (46.1 %)
        48 (10.8 %)     49 (10.4 %)     50 (22.4 %)     51 (8.0 %)
        52 (9.3 %)      53 (8.6 %)      54 (11.7 %)     55 (16.9 %)
        56 (10.1 %)     57 (13.4 %)     58 (12.0 %)     59 (11.8 %)
        60 (47.5 %)     61 (48.9 %)     62 (14.9 %)     63 (5.8 %)
        64 (25.3 %)     65 (22.1 %)     66 (30.7 %)     67 (5.5 %)
        68 (18.9 %)     69 (65.6 %)     70 (16.4 %)     71 (8.8 %)
        72 (50.6 %)     73 (7.2 %)      74 (8.3 %)      75 (13.5 %)
        76 (14.4 %)     77 (12.2 %)     78 (17.5 %)     79 (23.9 %)
        80 (18.4 %)     81 (19.3 %)     82 (30.4 %)     83 (26.0 %)
        84 (9.3 %)      85 (32.4 %)     86 (31.4 %)     87 (13.0 %)
        88 (8.4 %)      89 (39.8 %)     90 (11.5 %)     91 (29.0 %)
        92 (11.0 %)     93 (10.9 %)     94 (57.1 %)     95 (57.1 %)
        Total: 2289.6%
Initial condition solution time: CPU = 1.107000e-03 s, elapsed = 1.112938e-03
        s.
Intrinsic tran analysis time:    CPU = 1.101900e-02 s, elapsed = 1.108289e-02
        s.
Total time required for tran analysis `timeSweep': CPU = 1.275600e-02 s,
        elapsed = 1.286411e-02 s.
Time accumulated: CPU = 1.640020e-01 s, elapsed = 1.122441e+01 s.
Peak resident memory used = 1.14e+08 bytes.


Notice from spectre.
    37 notices suppressed.

Reading file:  /dev/shm/netlistGLfe1v
Time for NDB Parsing: CPU = 7.434000e-03 s, elapsed = 9.329081e-03 s.
Time accumulated: CPU = 1.714710e-01 s, elapsed = 1.123378e+01 s.
Peak resident memory used = 1.14e+08 bytes.

Time for Elaboration: CPU = 2.178000e-03 s, elapsed = 2.716064e-03 s.
Time accumulated: CPU = 1.737160e-01 s, elapsed = 1.123656e+01 s.
Peak resident memory used = 1.14e+08 bytes.


Time for EDB Visiting: CPU = 1.029000e-03 s, elapsed = 1.039982e-03 s.
Time accumulated: CPU = 1.748110e-01 s, elapsed = 1.123767e+01 s.
Peak resident memory used = 1.14e+08 bytes.


Global user options:
               temp = -40
      preserve_inst = [ C229_0 C230_0 Vclk ]
           autostop = spice
             digits = 6
            measdgt = 6
           notation = sci
             ingold = sci
               save = nooutput

Scoped user options:

Circuit inventory:
              nodes 137
              bsim4 11    
          capacitor 106   
           resistor 125   
            vsource 7     

Analysis and control statement inventory:
               tran 1     

Output statements:
             .probe 0     
           .measure 0     
               save 0     


*************************************************************************
Transient Analysis `timeSweep': time = (0.000000e+00 s -> 1.000010e-07 s)
*************************************************************************

Notice from spectre during IC analysis, during transient analysis `timeSweep'.
    GminDC = 1.000000e-12 S is large enough to noticeably affect the DC
        solution.
        dV(net3#4) = -2.218021e-02 V
        Use the `gmin_check' option to eliminate or expand this report.

DC simulation time: CPU = 9.180000e-04 s, elapsed = 9.291172e-04 s.
Important parameter values:
    start = 0.000000e+00 s
    outputstart = 0.000000e+00 s
    stop = 1.000010e-07 s
    step = 1.000000e-12 s
    maxstep = 2.000020e-09 s
    ic = all
    useprevic = no
    skipdc = no
    reltol = 1.000000e-03
    abstol(V) = 1.000000e-06 V
    abstol(I) = 1.000000e-12 A
    temp = -4.000000e+01 C
    tnom = 2.700000e+01 C
    tempeffects = all
    errpreset = moderate
    method = traponly
    lteratio = 3.500000e+00
    relref = sigglobal
    cmin = 0.000000e+00 F
    gmin = 1.000000e-12 S


Output and IC/nodeset summary:
                 nodeset        2       

...

Notice from spectre at time = 6.828492e-09 s during transient analysis
        `timeSweep'.
    Found trapezoidal ringing on node Voutn#14.

.....

Notice from spectre at time = 8.828512e-09 s during transient analysis
        `timeSweep'.
    Found trapezoidal ringing on node Voutn#14.

......

Notice from spectre at time = 1.082853e-08 s during transient analysis
        `timeSweep'.
    Found trapezoidal ringing on node Voutn#14.

......9.

Notice from spectre at time = 1.282855e-08 s during transient analysis
        `timeSweep'.
    Found trapezoidal ringing on node Voutn#14.

......9..

Notice from spectre at time = 1.482857e-08 s during transient analysis
        `timeSweep'.
    Found trapezoidal ringing on node Voutn#14.
        Further occurrences of this notice will be suppressed.

......9......8......7......6......5......4......3......2......1......0
Number of accepted tran steps =             137

Notice from spectre during transient analysis `timeSweep'.
    Trapezoidal ringing is detected during tran analysis.
        Please use method=trap for better results and performance.


Maximum value achieved for any signal of each quantity: 
V: V(net4#5) = 2.139e+00 V
I: I(Vclk:p) = 3.545e-03 A
If your circuit contains signals of the same quantity that are vastly different
        in size (such as high voltage circuitry combined with low voltage
        control circuitry), you should consider specifying global option
        `bin_relref=yes'.

~~~~~~~~~~~~~~~~~~~~~~~~~~~~~~~~~
Post-Transient Simulation Summary
~~~~~~~~~~~~~~~~~~~~~~~~~~~~~~~~~
   -   To further speed up simulation, consider
          add ++aps on command line
~~~~~~~~~~~~~~~~~~~~~~~~~~~~~~~~~


During simulation, the CPU load for active processors is :
         0 (19.7 %)      1 (40.1 %)      2 (79.1 %)      3 (20.6 %)
         4 (19.4 %)      5 (11.2 %)      6 (19.7 %)      7 (45.6 %)
         8 (38.2 %)      9 (25.3 %)     10 (25.0 %)     11 (15.4 %)
        12 (53.2 %)     13 (15.7 %)     14 (34.0 %)     15 (29.3 %)
        16 (11.9 %)     17 (53.7 %)     18 (46.2 %)     19 (5.3 %)
        20 (20.2 %)     21 (37.5 %)     22 (20.9 %)     23 (11.5 %)
        24 (7.4 %)      25 (16.0 %)     26 (10.2 %)     27 (10.5 %)
        28 (20.8 %)     29 (90.7 %)     30 (40.6 %)     31 (11.3 %)
        32 (58.2 %)     33 (31.8 %)     34 (10.2 %)     35 (23.1 %)
        36 (6.9 %)      37 (23.0 %)     38 (18.8 %)     39 (9.4 %)
        40 (15.6 %)     41 (51.1 %)     42 (19.6 %)     43 (24.5 %)
        44 (8.2 %)      45 (18.3 %)     46 (10.2 %)     47 (45.9 %)
        48 (10.9 %)     49 (10.4 %)     50 (22.7 %)     51 (8.0 %)
        52 (9.2 %)      53 (8.6 %)      54 (11.7 %)     55 (16.9 %)
        56 (10.1 %)     57 (13.6 %)     58 (12.0 %)     59 (11.8 %)
        60 (47.7 %)     61 (48.8 %)     62 (14.8 %)     63 (5.8 %)
        64 (25.2 %)     65 (22.0 %)     66 (30.6 %)     67 (5.4 %)
        68 (18.9 %)     69 (65.7 %)     70 (16.4 %)     71 (8.8 %)
        72 (50.5 %)     73 (7.1 %)      74 (8.2 %)      75 (13.5 %)
        76 (14.4 %)     77 (12.2 %)     78 (17.4 %)     79 (23.9 %)
        80 (18.4 %)     81 (19.2 %)     82 (30.3 %)     83 (26.0 %)
        84 (9.3 %)      85 (32.3 %)     86 (31.4 %)     87 (12.9 %)
        88 (8.4 %)      89 (39.7 %)     90 (11.4 %)     91 (28.9 %)
        92 (11.0 %)     93 (10.9 %)     94 (57.0 %)     95 (57.2 %)
        Total: 2288.4%
Initial condition solution time: CPU = 9.330000e-04 s, elapsed = 9.438992e-04
        s.
Intrinsic tran analysis time:    CPU = 1.025100e-02 s, elapsed = 1.031017e-02
        s.
Total time required for tran analysis `timeSweep': CPU = 1.167400e-02 s,
        elapsed = 1.176190e-02 s.
Time accumulated: CPU = 1.873460e-01 s, elapsed = 1.125029e+01 s.
Peak resident memory used = 1.16e+08 bytes.


Notice from spectre.
    43 notices suppressed.


*************************************************************************
Transient Analysis `timeSweep': time = (0.000000e+00 s -> 1.000010e-07 s)
*************************************************************************

Notice from spectre during transient analysis `timeSweep'.
    There are 177 IC nodes defined.

Important parameter values:
    start = 0.000000e+00 s
    outputstart = 0.000000e+00 s
    stop = 1.000010e-07 s
    step = 1.000000e-12 s
    maxstep = 2.000020e-09 s
    ic = all
    useprevic = no
    skipdc = useprevic
    reltol = 1.000000e-03
    abstol(V) = 1.000000e-06 V
    abstol(I) = 1.000000e-12 A
    temp = -4.000000e+01 C
    tnom = 2.700000e+01 C
    tempeffects = all
    errpreset = moderate
    method = traponly
    lteratio = 3.500000e+00
    relref = sigglobal
    cmin = 0.000000e+00 F
    gmin = 1.000000e-12 S


Output and IC/nodeset summary:
                 nodeset        2       

....

Notice from spectre at time = 8.080436e-09 s during transient analysis
        `timeSweep'.
    Found trapezoidal ringing on node Voutn#14.

......

Notice from spectre at time = 1.008046e-08 s during transient analysis
        `timeSweep'.
    Found trapezoidal ringing on node Voutn#14.

......9

Notice from spectre at time = 1.208048e-08 s during transient analysis
        `timeSweep'.
    Found trapezoidal ringing on node Voutn#14.

......9.

Notice from spectre at time = 1.408050e-08 s during transient analysis
        `timeSweep'.
    Found trapezoidal ringing on node Voutn#14.

......9...

Notice from spectre at time = 1.608052e-08 s during transient analysis
        `timeSweep'.
    Found trapezoidal ringing on node Voutn#14.
        Further occurrences of this notice will be suppressed.

......9......8......7......6......5......4......3......2......1......0
Number of accepted tran steps =             139

Notice from spectre during transient analysis `timeSweep'.
    Trapezoidal ringing is detected during tran analysis.
        Please use method=trap for better results and performance.


Maximum value achieved for any signal of each quantity: 
V: V(net4#5) = 2.138e+00 V
I: I(Vclk:p) = 3.549e-03 A
If your circuit contains signals of the same quantity that are vastly different
        in size (such as high voltage circuitry combined with low voltage
        control circuitry), you should consider specifying global option
        `bin_relref=yes'.

~~~~~~~~~~~~~~~~~~~~~~~~~~~~~~~~~
Post-Transient Simulation Summary
~~~~~~~~~~~~~~~~~~~~~~~~~~~~~~~~~
   -   To further speed up simulation, consider
          add ++aps on command line
~~~~~~~~~~~~~~~~~~~~~~~~~~~~~~~~~


During simulation, the CPU load for active processors is :
         0 (19.8 %)      1 (40.0 %)      2 (79.1 %)      3 (20.6 %)
         4 (19.4 %)      5 (11.2 %)      6 (19.6 %)      7 (45.5 %)
         8 (38.3 %)      9 (25.3 %)     10 (25.0 %)     11 (15.4 %)
        12 (53.1 %)     13 (15.7 %)     14 (34.1 %)     15 (29.3 %)
        16 (11.9 %)     17 (53.7 %)     18 (46.2 %)     19 (5.2 %)
        20 (20.2 %)     21 (37.4 %)     22 (21.0 %)     23 (11.6 %)
        24 (7.4 %)      25 (16.1 %)     26 (10.2 %)     27 (10.4 %)
        28 (20.8 %)     29 (90.7 %)     30 (40.5 %)     31 (11.4 %)
        32 (58.1 %)     33 (31.8 %)     34 (10.2 %)     35 (23.1 %)
        36 (6.9 %)      37 (23.0 %)     38 (18.9 %)     39 (9.4 %)
        40 (15.6 %)     41 (51.1 %)     42 (19.6 %)     43 (24.4 %)
        44 (8.2 %)      45 (18.3 %)     46 (10.2 %)     47 (45.8 %)
        48 (10.9 %)     49 (10.3 %)     50 (22.7 %)     51 (8.0 %)
        52 (9.2 %)      53 (8.6 %)      54 (11.6 %)     55 (16.8 %)
        56 (10.1 %)     57 (13.7 %)     58 (12.0 %)     59 (11.8 %)
        60 (47.7 %)     61 (48.7 %)     62 (14.8 %)     63 (5.8 %)
        64 (25.2 %)     65 (22.0 %)     66 (30.6 %)     67 (5.4 %)
        68 (18.8 %)     69 (65.7 %)     70 (16.4 %)     71 (8.8 %)
        72 (50.4 %)     73 (7.1 %)      74 (8.2 %)      75 (13.5 %)
        76 (14.4 %)     77 (12.2 %)     78 (17.4 %)     79 (23.9 %)
        80 (18.3 %)     81 (19.2 %)     82 (30.5 %)     83 (25.9 %)
        84 (9.3 %)      85 (32.3 %)     86 (31.3 %)     87 (12.9 %)
        88 (8.4 %)      89 (39.7 %)     90 (11.4 %)     91 (28.8 %)
        92 (11.0 %)     93 (10.9 %)     94 (56.9 %)     95 (57.3 %)
        Total: 2287.6%
Initial condition solution time: CPU = 0.000000e+00 s, elapsed = 0.000000e+00
        s.
Intrinsic tran analysis time:    CPU = 1.049700e-02 s, elapsed = 1.055193e-02
        s.
Total time required for tran analysis `timeSweep': CPU = 1.079500e-02 s,
        elapsed = 1.084805e-02 s.
Time accumulated: CPU = 1.984010e-01 s, elapsed = 1.126376e+01 s.
Peak resident memory used = 1.16e+08 bytes.


Notice from spectre.
    42 notices suppressed.


*************************************************************************
Transient Analysis `timeSweep': time = (0.000000e+00 s -> 1.000010e-07 s)
*************************************************************************

Notice from spectre during transient analysis `timeSweep'.
    There are 177 IC nodes defined.

Important parameter values:
    start = 0.000000e+00 s
    outputstart = 0.000000e+00 s
    stop = 1.000010e-07 s
    step = 1.000000e-12 s
    maxstep = 2.000020e-09 s
    ic = all
    useprevic = no
    skipdc = useprevic
    reltol = 1.000000e-03
    abstol(V) = 1.000000e-06 V
    abstol(I) = 1.000000e-12 A
    temp = -4.000000e+01 C
    tnom = 2.700000e+01 C
    tempeffects = all
    errpreset = moderate
    method = traponly
    lteratio = 3.500000e+00
    relref = sigglobal
    cmin = 0.000000e+00 F
    gmin = 1.000000e-12 S


Output and IC/nodeset summary:
                 nodeset        2       

....

Notice from spectre at time = 7.593857e-09 s during transient analysis
        `timeSweep'.
    Found trapezoidal ringing on node net4.

.....

Notice from spectre at time = 9.593877e-09 s during transient analysis
        `timeSweep'.
    Found trapezoidal ringing on node net4.

......9

Notice from spectre at time = 1.159390e-08 s during transient analysis
        `timeSweep'.
    Found trapezoidal ringing on node net4.

......9.

Notice from spectre at time = 1.359392e-08 s during transient analysis
        `timeSweep'.
    Found trapezoidal ringing on node net4.

......9...

Notice from spectre at time = 1.559394e-08 s during transient analysis
        `timeSweep'.
    Found trapezoidal ringing on node net4.
        Further occurrences of this notice will be suppressed.

......9......8......7......6......5......4......3......2......1......0
Number of accepted tran steps =             143

Notice from spectre during transient analysis `timeSweep'.
    Trapezoidal ringing is detected during tran analysis.
        Please use method=trap for better results and performance.


Maximum value achieved for any signal of each quantity: 
V: V(net4#5) = 2.137e+00 V
I: I(Vclk:p) = 3.552e-03 A
If your circuit contains signals of the same quantity that are vastly different
        in size (such as high voltage circuitry combined with low voltage
        control circuitry), you should consider specifying global option
        `bin_relref=yes'.

~~~~~~~~~~~~~~~~~~~~~~~~~~~~~~~~~
Post-Transient Simulation Summary
~~~~~~~~~~~~~~~~~~~~~~~~~~~~~~~~~
   -   To further speed up simulation, consider
          add ++aps on command line
~~~~~~~~~~~~~~~~~~~~~~~~~~~~~~~~~


During simulation, the CPU load for active processors is :
         0 (19.9 %)      1 (40.0 %)      2 (79.0 %)      3 (20.6 %)
         4 (19.4 %)      5 (11.2 %)      6 (19.6 %)      7 (45.5 %)
         8 (38.2 %)      9 (25.2 %)     10 (25.1 %)     11 (15.4 %)
        12 (53.0 %)     13 (15.7 %)     14 (34.2 %)     15 (29.2 %)
        16 (12.0 %)     17 (53.6 %)     18 (46.1 %)     19 (5.2 %)
        20 (20.2 %)     21 (37.4 %)     22 (21.1 %)     23 (11.6 %)
        24 (7.4 %)      25 (16.3 %)     26 (10.2 %)     27 (10.4 %)
        28 (20.8 %)     29 (90.7 %)     30 (40.5 %)     31 (11.4 %)
        32 (58.1 %)     33 (31.7 %)     34 (10.2 %)     35 (23.1 %)
        36 (6.9 %)      37 (22.9 %)     38 (19.0 %)     39 (9.4 %)
        40 (15.6 %)     41 (51.0 %)     42 (19.6 %)     43 (24.4 %)
        44 (8.2 %)      45 (18.3 %)     46 (10.2 %)     47 (45.8 %)
        48 (10.9 %)     49 (10.3 %)     50 (22.8 %)     51 (8.0 %)
        52 (9.3 %)      53 (8.6 %)      54 (11.6 %)     55 (16.8 %)
        56 (10.1 %)     57 (13.8 %)     58 (12.0 %)     59 (11.8 %)
        60 (47.7 %)     61 (48.7 %)     62 (14.8 %)     63 (5.8 %)
        64 (25.2 %)     65 (22.0 %)     66 (30.6 %)     67 (5.4 %)
        68 (18.8 %)     69 (65.8 %)     70 (16.3 %)     71 (8.8 %)
        72 (50.4 %)     73 (7.1 %)      74 (8.2 %)      75 (13.5 %)
        76 (14.3 %)     77 (12.2 %)     78 (17.4 %)     79 (23.8 %)
        80 (18.3 %)     81 (19.2 %)     82 (30.5 %)     83 (25.9 %)
        84 (9.3 %)      85 (32.2 %)     86 (31.3 %)     87 (12.9 %)
        88 (8.4 %)      89 (39.6 %)     90 (11.4 %)     91 (28.8 %)
        92 (10.9 %)     93 (10.8 %)     94 (56.8 %)     95 (57.3 %)
        Total: 2286.9%
Initial condition solution time: CPU = 0.000000e+00 s, elapsed = 0.000000e+00
        s.
Intrinsic tran analysis time:    CPU = 1.068500e-02 s, elapsed = 1.073885e-02
        s.
Total time required for tran analysis `timeSweep': CPU = 1.098000e-02 s,
        elapsed = 1.104212e-02 s.
Time accumulated: CPU = 2.096120e-01 s, elapsed = 1.127542e+01 s.
Peak resident memory used = 1.16e+08 bytes.


Notice from spectre.
    43 notices suppressed.


*************************************************************************
Transient Analysis `timeSweep': time = (0.000000e+00 s -> 1.000010e-07 s)
*************************************************************************

Notice from spectre during transient analysis `timeSweep'.
    There are 177 IC nodes defined.

Important parameter values:
    start = 0.000000e+00 s
    outputstart = 0.000000e+00 s
    stop = 1.000010e-07 s
    step = 1.000000e-12 s
    maxstep = 2.000020e-09 s
    ic = all
    useprevic = no
    skipdc = useprevic
    reltol = 1.000000e-03
    abstol(V) = 1.000000e-06 V
    abstol(I) = 1.000000e-12 A
    temp = -4.000000e+01 C
    tnom = 2.700000e+01 C
    tempeffects = all
    errpreset = moderate
    method = traponly
    lteratio = 3.500000e+00
    relref = sigglobal
    cmin = 0.000000e+00 F
    gmin = 1.000000e-12 S


Output and IC/nodeset summary:
                 nodeset        2       

......9......8......7......6......5......4......3......2......1......0
Number of accepted tran steps =             142

Notice from spectre during transient analysis `timeSweep'.
    Trapezoidal ringing is detected during tran analysis.
        Please use method=trap for better results and performance.


Maximum value achieved for any signal of each quantity: 
V: V(net4#5) = 2.136e+00 V
I: I(Vclk:p) = 3.555e-03 A
If your circuit contains signals of the same quantity that are vastly different
        in size (such as high voltage circuitry combined with low voltage
        control circuitry), you should consider specifying global option
        `bin_relref=yes'.

~~~~~~~~~~~~~~~~~~~~~~~~~~~~~~~~~
Post-Transient Simulation Summary
~~~~~~~~~~~~~~~~~~~~~~~~~~~~~~~~~
   -   To further speed up simulation, consider
          add ++aps on command line
~~~~~~~~~~~~~~~~~~~~~~~~~~~~~~~~~


During simulation, the CPU load for active processors is :
         0 (20.0 %)      1 (39.9 %)      2 (78.8 %)      3 (20.5 %)
         4 (19.5 %)      5 (11.1 %)      6 (19.6 %)      7 (45.4 %)
         8 (38.2 %)      9 (25.2 %)     10 (25.1 %)     11 (15.3 %)
        12 (53.0 %)     13 (15.7 %)     14 (34.2 %)     15 (29.2 %)
        16 (12.2 %)     17 (53.5 %)     18 (46.0 %)     19 (5.2 %)
        20 (20.1 %)     21 (37.3 %)     22 (21.2 %)     23 (11.6 %)
        24 (7.4 %)      25 (16.4 %)     26 (10.2 %)     27 (10.4 %)
        28 (20.7 %)     29 (90.7 %)     30 (40.5 %)     31 (11.5 %)
        32 (58.1 %)     33 (31.8 %)     34 (10.2 %)     35 (23.1 %)
        36 (6.9 %)      37 (22.9 %)     38 (19.1 %)     39 (9.4 %)
        40 (15.6 %)     41 (50.9 %)     42 (19.5 %)     43 (24.4 %)
        44 (8.2 %)      45 (18.4 %)     46 (10.3 %)     47 (45.8 %)
        48 (10.9 %)     49 (10.3 %)     50 (22.9 %)     51 (7.9 %)
        52 (9.3 %)      53 (8.6 %)      54 (11.6 %)     55 (16.8 %)
        56 (10.2 %)     57 (13.8 %)     58 (12.0 %)     59 (11.8 %)
        60 (47.8 %)     61 (48.6 %)     62 (14.8 %)     63 (5.8 %)
        64 (25.1 %)     65 (21.9 %)     66 (30.6 %)     67 (5.4 %)
        68 (18.8 %)     69 (65.8 %)     70 (16.3 %)     71 (8.8 %)
        72 (50.4 %)     73 (7.1 %)      74 (8.2 %)      75 (13.4 %)
        76 (14.3 %)     77 (12.2 %)     78 (17.3 %)     79 (23.8 %)
        80 (18.3 %)     81 (19.1 %)     82 (30.4 %)     83 (26.0 %)
        84 (9.2 %)      85 (32.2 %)     86 (31.3 %)     87 (13.0 %)
        88 (8.5 %)      89 (39.6 %)     90 (11.5 %)     91 (28.8 %)
        92 (10.9 %)     93 (10.8 %)     94 (56.8 %)     95 (57.4 %)
        Total: 2286.6%
Initial condition solution time: CPU = 0.000000e+00 s, elapsed = 0.000000e+00
        s.
Intrinsic tran analysis time:    CPU = 1.064800e-02 s, elapsed = 1.070499e-02
        s.
Total time required for tran analysis `timeSweep': CPU = 1.094200e-02 s,
        elapsed = 1.099586e-02 s.
Time accumulated: CPU = 2.207870e-01 s, elapsed = 1.128920e+01 s.
Peak resident memory used = 1.16e+08 bytes.


*************************************************************************
Transient Analysis `timeSweep': time = (0.000000e+00 s -> 1.000010e-07 s)
*************************************************************************

Notice from spectre during transient analysis `timeSweep'.
    There are 177 IC nodes defined.

Important parameter values:
    start = 0.000000e+00 s
    outputstart = 0.000000e+00 s
    stop = 1.000010e-07 s
    step = 1.000000e-12 s
    maxstep = 2.000020e-09 s
    ic = all
    useprevic = no
    skipdc = useprevic
    reltol = 1.000000e-03
    abstol(V) = 1.000000e-06 V
    abstol(I) = 1.000000e-12 A
    temp = -4.000000e+01 C
    tnom = 2.700000e+01 C
    tempeffects = all
    errpreset = moderate
    method = traponly
    lteratio = 3.500000e+00
    relref = sigglobal
    cmin = 0.000000e+00 F
    gmin = 1.000000e-12 S


Output and IC/nodeset summary:
                 nodeset        2       

......9.

Notice from spectre at time = 1.330211e-08 s during transient analysis
        `timeSweep'.
    Found trapezoidal ringing on node Voutn#14.

......9..

Notice from spectre at time = 1.530213e-08 s during transient analysis
        `timeSweep'.
    Found trapezoidal ringing on node Voutn#14.

......9....

Notice from spectre at time = 1.730215e-08 s during transient analysis
        `timeSweep'.
    Found trapezoidal ringing on node Voutn#14.

......9.....

Notice from spectre at time = 1.930217e-08 s during transient analysis
        `timeSweep'.
    Found trapezoidal ringing on node Voutn#14.

......9......8

Notice from spectre at time = 2.130219e-08 s during transient analysis
        `timeSweep'.
    Found trapezoidal ringing on node Voutn#14.
        Further occurrences of this notice will be suppressed.

......9......8......7......6......5......4......3......2......1......0
Number of accepted tran steps =             147

Notice from spectre during transient analysis `timeSweep'.
    Trapezoidal ringing is detected during tran analysis.
        Please use method=trap for better results and performance.


Maximum value achieved for any signal of each quantity: 
V: V(net4#5) = 2.135e+00 V
I: I(Vclk:p) = 3.557e-03 A
If your circuit contains signals of the same quantity that are vastly different
        in size (such as high voltage circuitry combined with low voltage
        control circuitry), you should consider specifying global option
        `bin_relref=yes'.

~~~~~~~~~~~~~~~~~~~~~~~~~~~~~~~~~
Post-Transient Simulation Summary
~~~~~~~~~~~~~~~~~~~~~~~~~~~~~~~~~
   -   To further speed up simulation, consider
          add ++aps on command line
~~~~~~~~~~~~~~~~~~~~~~~~~~~~~~~~~


During simulation, the CPU load for active processors is :
         0 (20.0 %)      1 (39.9 %)      2 (78.8 %)      3 (20.5 %)
         4 (19.6 %)      5 (11.1 %)      6 (19.6 %)      7 (45.4 %)
         8 (38.2 %)      9 (25.2 %)     10 (25.1 %)     11 (15.3 %)
        12 (52.9 %)     13 (15.6 %)     14 (34.4 %)     15 (29.2 %)
        16 (12.3 %)     17 (53.5 %)     18 (46.0 %)     19 (5.2 %)
        20 (20.1 %)     21 (37.3 %)     22 (21.3 %)     23 (11.5 %)
        24 (7.4 %)      25 (16.4 %)     26 (10.2 %)     27 (10.4 %)
        28 (20.7 %)     29 (90.7 %)     30 (40.5 %)     31 (11.5 %)
        32 (58.0 %)     33 (31.7 %)     34 (10.2 %)     35 (23.0 %)
        36 (7.0 %)      37 (22.9 %)     38 (19.2 %)     39 (9.4 %)
        40 (15.5 %)     41 (50.9 %)     42 (19.5 %)     43 (24.3 %)
        44 (8.2 %)      45 (18.4 %)     46 (10.3 %)     47 (45.7 %)
        48 (10.9 %)     49 (10.3 %)     50 (23.0 %)     51 (7.9 %)
        52 (9.3 %)      53 (8.6 %)      54 (11.6 %)     55 (16.8 %)
        56 (10.2 %)     57 (13.9 %)     58 (11.9 %)     59 (11.8 %)
        60 (47.9 %)     61 (48.6 %)     62 (14.8 %)     63 (5.8 %)
        64 (25.1 %)     65 (21.9 %)     66 (30.5 %)     67 (5.4 %)
        68 (18.8 %)     69 (65.8 %)     70 (16.3 %)     71 (8.7 %)
        72 (50.3 %)     73 (7.1 %)      74 (8.2 %)      75 (13.4 %)
        76 (14.3 %)     77 (12.1 %)     78 (17.3 %)     79 (23.8 %)
        80 (18.3 %)     81 (19.1 %)     82 (30.4 %)     83 (26.0 %)
        84 (9.2 %)      85 (32.2 %)     86 (31.2 %)     87 (12.9 %)
        88 (8.5 %)      89 (39.5 %)     90 (11.5 %)     91 (28.8 %)
        92 (10.9 %)     93 (10.8 %)     94 (56.8 %)     95 (57.4 %)
        Total: 2285.8%
Initial condition solution time: CPU = 0.000000e+00 s, elapsed = 0.000000e+00
        s.
Intrinsic tran analysis time:    CPU = 1.109900e-02 s, elapsed = 1.116490e-02
        s.
Total time required for tran analysis `timeSweep': CPU = 1.138400e-02 s,
        elapsed = 1.144791e-02 s.
Time accumulated: CPU = 2.324000e-01 s, elapsed = 1.130154e+01 s.
Peak resident memory used = 1.16e+08 bytes.


Notice from spectre.
    40 notices suppressed.


*************************************************************************
Transient Analysis `timeSweep': time = (0.000000e+00 s -> 1.000010e-07 s)
*************************************************************************

Notice from spectre during transient analysis `timeSweep'.
    There are 177 IC nodes defined.

Important parameter values:
    start = 0.000000e+00 s
    outputstart = 0.000000e+00 s
    stop = 1.000010e-07 s
    step = 1.000000e-12 s
    maxstep = 2.000020e-09 s
    ic = all
    useprevic = no
    skipdc = useprevic
    reltol = 1.000000e-03
    abstol(V) = 1.000000e-06 V
    abstol(I) = 1.000000e-12 A
    temp = -4.000000e+01 C
    tnom = 2.700000e+01 C
    tempeffects = all
    errpreset = moderate
    method = traponly
    lteratio = 3.500000e+00
    relref = sigglobal
    cmin = 0.000000e+00 F
    gmin = 1.000000e-12 S


Output and IC/nodeset summary:
                 nodeset        2       

......9.

Notice from spectre at time = 1.287012e-08 s during transient analysis
        `timeSweep'.
    Found trapezoidal ringing on node VVSS:p.

......9..

Notice from spectre at time = 1.487014e-08 s during transient analysis
        `timeSweep'.
    Found trapezoidal ringing on node VVSS:p.

......9...

Notice from spectre at time = 1.687016e-08 s during transient analysis
        `timeSweep'.
    Found trapezoidal ringing on node VVSS:p.

......9.....

Notice from spectre at time = 1.887018e-08 s during transient analysis
        `timeSweep'.
    Found trapezoidal ringing on node VVSS:p.

......9......

Notice from spectre at time = 2.087020e-08 s during transient analysis
        `timeSweep'.
    Found trapezoidal ringing on node VVSS:p.
        Further occurrences of this notice will be suppressed.

......9......8......7......6......5......4......3......2......1......0
Number of accepted tran steps =             146

Notice from spectre during transient analysis `timeSweep'.
    Trapezoidal ringing is detected during tran analysis.
        Please use method=trap for better results and performance.


Maximum value achieved for any signal of each quantity: 
V: V(net4#5) = 2.135e+00 V
I: I(Vclk:p) = 3.558e-03 A
If your circuit contains signals of the same quantity that are vastly different
        in size (such as high voltage circuitry combined with low voltage
        control circuitry), you should consider specifying global option
        `bin_relref=yes'.

~~~~~~~~~~~~~~~~~~~~~~~~~~~~~~~~~
Post-Transient Simulation Summary
~~~~~~~~~~~~~~~~~~~~~~~~~~~~~~~~~
   -   To further speed up simulation, consider
          add ++aps on command line
~~~~~~~~~~~~~~~~~~~~~~~~~~~~~~~~~


During simulation, the CPU load for active processors is :
         0 (20.2 %)      1 (39.8 %)      2 (78.7 %)      3 (20.5 %)
         4 (19.7 %)      5 (11.1 %)      6 (19.5 %)      7 (45.3 %)
         8 (38.1 %)      9 (25.2 %)     10 (25.2 %)     11 (15.3 %)
        12 (52.9 %)     13 (15.6 %)     14 (34.4 %)     15 (29.1 %)
        16 (12.3 %)     17 (53.4 %)     18 (46.0 %)     19 (5.2 %)
        20 (20.1 %)     21 (37.2 %)     22 (21.4 %)     23 (11.5 %)
        24 (7.4 %)      25 (16.6 %)     26 (10.2 %)     27 (10.4 %)
        28 (20.7 %)     29 (90.8 %)     30 (40.5 %)     31 (11.5 %)
        32 (58.0 %)     33 (31.7 %)     34 (10.2 %)     35 (23.0 %)
        36 (7.0 %)      37 (22.9 %)     38 (19.3 %)     39 (9.4 %)
        40 (15.5 %)     41 (50.9 %)     42 (19.5 %)     43 (24.3 %)
        44 (8.3 %)      45 (18.4 %)     46 (10.2 %)     47 (45.6 %)
        48 (10.8 %)     49 (10.3 %)     50 (23.0 %)     51 (7.9 %)
        52 (9.3 %)      53 (8.6 %)      54 (11.6 %)     55 (16.8 %)
        56 (10.2 %)     57 (14.0 %)     58 (12.0 %)     59 (11.9 %)
        60 (47.9 %)     61 (48.5 %)     62 (14.7 %)     63 (5.8 %)
        64 (25.1 %)     65 (21.9 %)     66 (30.5 %)     67 (5.4 %)
        68 (18.7 %)     69 (65.9 %)     70 (16.3 %)     71 (8.7 %)
        72 (50.2 %)     73 (7.1 %)      74 (8.2 %)      75 (13.4 %)
        76 (14.3 %)     77 (12.1 %)     78 (17.4 %)     79 (23.8 %)
        80 (18.2 %)     81 (19.1 %)     82 (30.4 %)     83 (26.0 %)
        84 (9.2 %)      85 (32.2 %)     86 (31.2 %)     87 (12.9 %)
        88 (8.5 %)      89 (39.5 %)     90 (11.4 %)     91 (28.7 %)
        92 (10.9 %)     93 (10.8 %)     94 (56.7 %)     95 (57.5 %)
        Total: 2285.3%
Initial condition solution time: CPU = 0.000000e+00 s, elapsed = 0.000000e+00
        s.
Intrinsic tran analysis time:    CPU = 1.138200e-02 s, elapsed = 1.145005e-02
        s.
Total time required for tran analysis `timeSweep': CPU = 1.167000e-02 s,
        elapsed = 1.173711e-02 s.
Time accumulated: CPU = 2.443070e-01 s, elapsed = 1.131489e+01 s.
Peak resident memory used = 1.16e+08 bytes.


Notice from spectre.
    38 notices suppressed.


*************************************************************************
Transient Analysis `timeSweep': time = (0.000000e+00 s -> 1.000010e-07 s)
*************************************************************************

Notice from spectre during transient analysis `timeSweep'.
    There are 177 IC nodes defined.

Important parameter values:
    start = 0.000000e+00 s
    outputstart = 0.000000e+00 s
    stop = 1.000010e-07 s
    step = 1.000000e-12 s
    maxstep = 2.000020e-09 s
    ic = all
    useprevic = no
    skipdc = useprevic
    reltol = 1.000000e-03
    abstol(V) = 1.000000e-06 V
    abstol(I) = 1.000000e-12 A
    temp = -4.000000e+01 C
    tnom = 2.700000e+01 C
    tempeffects = all
    errpreset = moderate
    method = traponly
    lteratio = 3.500000e+00
    relref = sigglobal
    cmin = 0.000000e+00 F
    gmin = 1.000000e-12 S


Output and IC/nodeset summary:
                 nodeset        2       

......9......

Notice from spectre at time = 2.082513e-08 s during transient analysis
        `timeSweep'.
    Found trapezoidal ringing on node net4.

......9......8.

Notice from spectre at time = 2.282515e-08 s during transient analysis
        `timeSweep'.
    Found trapezoidal ringing on node net4.

......9......8..

Notice from spectre at time = 2.482517e-08 s during transient analysis
        `timeSweep'.
    Found trapezoidal ringing on node net4.

......9......8...

Notice from spectre at time = 2.682519e-08 s during transient analysis
        `timeSweep'.
    Found trapezoidal ringing on node net4.

......9......8.....

Notice from spectre at time = 2.882521e-08 s during transient analysis
        `timeSweep'.
    Found trapezoidal ringing on node net4.
        Further occurrences of this notice will be suppressed.

......9......8......7......6......5......4......3......2......1......0
Number of accepted tran steps =             146

Notice from spectre during transient analysis `timeSweep'.
    Trapezoidal ringing is detected during tran analysis.
        Please use method=trap for better results and performance.


Maximum value achieved for any signal of each quantity: 
V: V(net4#5) = 2.134e+00 V
I: I(Vclk:p) = 3.559e-03 A
If your circuit contains signals of the same quantity that are vastly different
        in size (such as high voltage circuitry combined with low voltage
        control circuitry), you should consider specifying global option
        `bin_relref=yes'.

~~~~~~~~~~~~~~~~~~~~~~~~~~~~~~~~~
Post-Transient Simulation Summary
~~~~~~~~~~~~~~~~~~~~~~~~~~~~~~~~~
   -   To further speed up simulation, consider
          add ++aps on command line
~~~~~~~~~~~~~~~~~~~~~~~~~~~~~~~~~


During simulation, the CPU load for active processors is :
         0 (20.2 %)      1 (39.8 %)      2 (78.8 %)      3 (20.5 %)
         4 (19.8 %)      5 (11.1 %)      6 (19.6 %)      7 (45.2 %)
         8 (38.0 %)      9 (25.1 %)     10 (25.2 %)     11 (15.3 %)
        12 (52.7 %)     13 (15.7 %)     14 (34.6 %)     15 (29.1 %)
        16 (12.5 %)     17 (53.3 %)     18 (45.8 %)     19 (5.2 %)
        20 (20.1 %)     21 (37.2 %)     22 (21.6 %)     23 (11.5 %)
        24 (7.4 %)      25 (16.8 %)     26 (10.2 %)     27 (10.4 %)
        28 (20.7 %)     29 (90.8 %)     30 (40.4 %)     31 (11.4 %)
        32 (57.8 %)     33 (31.6 %)     34 (10.1 %)     35 (23.0 %)
        36 (7.0 %)      37 (22.8 %)     38 (19.5 %)     39 (9.4 %)
        40 (15.5 %)     41 (50.7 %)     42 (19.4 %)     43 (24.3 %)
        44 (8.3 %)      45 (18.3 %)     46 (10.2 %)     47 (45.6 %)
        48 (10.8 %)     49 (10.3 %)     50 (22.9 %)     51 (7.9 %)
        52 (9.3 %)      53 (8.6 %)      54 (11.6 %)     55 (16.8 %)
        56 (10.2 %)     57 (14.0 %)     58 (12.0 %)     59 (11.9 %)
        60 (48.0 %)     61 (48.4 %)     62 (14.8 %)     63 (5.8 %)
        64 (25.0 %)     65 (21.8 %)     66 (30.5 %)     67 (5.4 %)
        68 (18.7 %)     69 (65.9 %)     70 (16.2 %)     71 (8.7 %)
        72 (50.3 %)     73 (7.1 %)      74 (8.2 %)      75 (13.4 %)
        76 (14.3 %)     77 (12.1 %)     78 (17.3 %)     79 (23.7 %)
        80 (18.2 %)     81 (19.0 %)     82 (30.5 %)     83 (26.0 %)
        84 (9.2 %)      85 (32.3 %)     86 (31.1 %)     87 (12.9 %)
        88 (8.5 %)      89 (39.4 %)     90 (11.4 %)     91 (28.7 %)
        92 (10.9 %)     93 (10.8 %)     94 (56.6 %)     95 (57.6 %)
        Total: 2284.0%
Initial condition solution time: CPU = 0.000000e+00 s, elapsed = 0.000000e+00
        s.
Intrinsic tran analysis time:    CPU = 2.246800e-02 s, elapsed = 2.267218e-02
        s.
Total time required for tran analysis `timeSweep': CPU = 2.344000e-02 s,
        elapsed = 2.364612e-02 s.
Time accumulated: CPU = 2.682950e-01 s, elapsed = 1.134007e+01 s.
Peak resident memory used = 1.16e+08 bytes.


Notice from spectre.
    36 notices suppressed.


*************************************************************************
Transient Analysis `timeSweep': time = (0.000000e+00 s -> 1.000010e-07 s)
*************************************************************************

Notice from spectre during transient analysis `timeSweep'.
    There are 177 IC nodes defined.

Important parameter values:
    start = 0.000000e+00 s
    outputstart = 0.000000e+00 s
    stop = 1.000010e-07 s
    step = 1.000000e-12 s
    maxstep = 2.000020e-09 s
    ic = all
    useprevic = no
    skipdc = useprevic
    reltol = 1.000000e-03
    abstol(V) = 1.000000e-06 V
    abstol(I) = 1.000000e-12 A
    temp = -4.000000e+01 C
    tnom = 2.700000e+01 C
    tempeffects = all
    errpreset = moderate
    method = traponly
    lteratio = 3.500000e+00
    relref = sigglobal
    cmin = 0.000000e+00 F
    gmin = 1.000000e-12 S


Output and IC/nodeset summary:
                 nodeset        2       

...

Notice from spectre at time = 6.742127e-09 s during transient analysis
        `timeSweep'.
    Found trapezoidal ringing on node Voutn#14.

.....

Notice from spectre at time = 8.742147e-09 s during transient analysis
        `timeSweep'.
    Found trapezoidal ringing on node Voutn#14.

......

Notice from spectre at time = 1.074217e-08 s during transient analysis
        `timeSweep'.
    Found trapezoidal ringing on node Voutn#14.

......9.

Notice from spectre at time = 1.274219e-08 s during transient analysis
        `timeSweep'.
    Found trapezoidal ringing on node Voutn#14.

......9..

Notice from spectre at time = 1.474221e-08 s during transient analysis
        `timeSweep'.
    Found trapezoidal ringing on node Voutn#14.
        Further occurrences of this notice will be suppressed.

......9......8......7......6......5......4......3......2......1......0
Number of accepted tran steps =             129

Notice from spectre during transient analysis `timeSweep'.
    Trapezoidal ringing is detected during tran analysis.
        Please use method=trap for better results and performance.


Maximum value achieved for any signal of each quantity: 
V: V(net4#7) = 2.120e+00 V
I: I(Vclk:p) = 1.316e-03 A
If your circuit contains signals of the same quantity that are vastly different
        in size (such as high voltage circuitry combined with low voltage
        control circuitry), you should consider specifying global option
        `bin_relref=yes'.

~~~~~~~~~~~~~~~~~~~~~~~~~~~~~~~~~
Post-Transient Simulation Summary
~~~~~~~~~~~~~~~~~~~~~~~~~~~~~~~~~
   -   To further speed up simulation, consider
          add ++aps on command line
~~~~~~~~~~~~~~~~~~~~~~~~~~~~~~~~~


During simulation, the CPU load for active processors is :
         0 (20.1 %)      1 (39.8 %)      2 (78.8 %)      3 (20.4 %)
         4 (19.9 %)      5 (11.1 %)      6 (19.6 %)      7 (45.2 %)
         8 (38.0 %)      9 (25.1 %)     10 (25.2 %)     11 (15.3 %)
        12 (52.7 %)     13 (15.7 %)     14 (34.7 %)     15 (29.0 %)
        16 (12.7 %)     17 (53.2 %)     18 (45.8 %)     19 (5.2 %)
        20 (20.0 %)     21 (37.1 %)     22 (21.6 %)     23 (11.5 %)
        24 (7.4 %)      25 (16.9 %)     26 (10.1 %)     27 (10.4 %)
        28 (20.8 %)     29 (90.8 %)     30 (40.4 %)     31 (11.5 %)
        32 (57.8 %)     33 (31.6 %)     34 (10.1 %)     35 (22.9 %)
        36 (6.9 %)      37 (22.8 %)     38 (19.5 %)     39 (9.4 %)
        40 (15.5 %)     41 (50.7 %)     42 (19.4 %)     43 (24.2 %)
        44 (8.3 %)      45 (18.3 %)     46 (10.2 %)     47 (45.5 %)
        48 (10.8 %)     49 (10.3 %)     50 (22.9 %)     51 (7.9 %)
        52 (9.2 %)      53 (8.5 %)      54 (11.6 %)     55 (16.8 %)
        56 (10.1 %)     57 (13.9 %)     58 (12.0 %)     59 (11.9 %)
        60 (48.1 %)     61 (48.3 %)     62 (14.8 %)     63 (5.8 %)
        64 (25.0 %)     65 (21.8 %)     66 (30.5 %)     67 (5.4 %)
        68 (18.7 %)     69 (66.0 %)     70 (16.2 %)     71 (8.7 %)
        72 (50.4 %)     73 (7.1 %)      74 (8.2 %)      75 (13.4 %)
        76 (14.3 %)     77 (12.1 %)     78 (17.3 %)     79 (23.7 %)
        80 (18.2 %)     81 (19.0 %)     82 (30.4 %)     83 (25.9 %)
        84 (9.2 %)      85 (32.3 %)     86 (31.1 %)     87 (12.9 %)
        88 (8.5 %)      89 (39.4 %)     90 (11.4 %)     91 (28.6 %)
        92 (10.9 %)     93 (10.8 %)     94 (56.5 %)     95 (57.6 %)
        Total: 2283.3%
Initial condition solution time: CPU = 0.000000e+00 s, elapsed = 0.000000e+00
        s.
Intrinsic tran analysis time:    CPU = 9.911000e-03 s, elapsed = 9.963036e-03
        s.
Total time required for tran analysis `timeSweep': CPU = 1.024700e-02 s,
        elapsed = 1.030397e-02 s.
Time accumulated: CPU = 2.788570e-01 s, elapsed = 1.135173e+01 s.
Peak resident memory used = 1.16e+08 bytes.


Notice from spectre.
    43 notices suppressed.


*************************************************************************
Transient Analysis `timeSweep': time = (0.000000e+00 s -> 1.000010e-07 s)
*************************************************************************

Notice from spectre during transient analysis `timeSweep'.
    There are 177 IC nodes defined.

Important parameter values:
    start = 0.000000e+00 s
    outputstart = 0.000000e+00 s
    stop = 1.000010e-07 s
    step = 1.000000e-12 s
    maxstep = 2.000020e-09 s
    ic = all
    useprevic = no
    skipdc = useprevic
    reltol = 1.000000e-03
    abstol(V) = 1.000000e-06 V
    abstol(I) = 1.000000e-12 A
    temp = -4.000000e+01 C
    tnom = 2.700000e+01 C
    tempeffects = all
    errpreset = moderate
    method = traponly
    lteratio = 3.500000e+00
    relref = sigglobal
    cmin = 0.000000e+00 F
    gmin = 1.000000e-12 S


Output and IC/nodeset summary:
                 nodeset        2       


Notice from spectre at time = 7.198214e-11 s during transient analysis
        `timeSweep'.
    Found trapezoidal ringing on node
        MXNM3.xsky130_fd_pr__nfet_01v8.msky130_fd_pr__nfet_01v8_0:int_b.
Notice from spectre at time = 7.381876e-11 s during transient analysis
        `timeSweep'.
    Found trapezoidal ringing on node
        MXNM3.xsky130_fd_pr__nfet_01v8.msky130_fd_pr__nfet_01v8_0:int_b.
Notice from spectre at time = 1.554496e-10 s during transient analysis
        `timeSweep'.
    Found trapezoidal ringing on node
        MXNM3.xsky130_fd_pr__nfet_01v8.msky130_fd_pr__nfet_01v8_0:int_b.
Notice from spectre at time = 1.586357e-10 s during transient analysis
        `timeSweep'.
    Found trapezoidal ringing on node
        MXNM3.xsky130_fd_pr__nfet_01v8.msky130_fd_pr__nfet_01v8_0:int_b.

....

Notice from spectre at time = 8.191520e-09 s during transient analysis
        `timeSweep'.
    Found trapezoidal ringing on node Voutn#14.
        Further occurrences of this notice will be suppressed.

......9......8......7......6......5......4......3......2......1......0
Number of accepted tran steps =             144

Notice from spectre during transient analysis `timeSweep'.
    Trapezoidal ringing is detected during tran analysis.
        Please use method=trap for better results and performance.


Maximum value achieved for any signal of each quantity: 
V: V(net4#7) = 2.119e+00 V
I: I(Vclk:p) = 1.317e-03 A
If your circuit contains signals of the same quantity that are vastly different
        in size (such as high voltage circuitry combined with low voltage
        control circuitry), you should consider specifying global option
        `bin_relref=yes'.

~~~~~~~~~~~~~~~~~~~~~~~~~~~~~~~~~
Post-Transient Simulation Summary
~~~~~~~~~~~~~~~~~~~~~~~~~~~~~~~~~
   -   To further speed up simulation, consider
          add ++aps on command line
~~~~~~~~~~~~~~~~~~~~~~~~~~~~~~~~~


During simulation, the CPU load for active processors is :
         0 (20.1 %)      1 (39.7 %)      2 (78.8 %)      3 (20.5 %)
         4 (19.9 %)      5 (11.1 %)      6 (19.5 %)      7 (45.1 %)
         8 (37.9 %)      9 (25.1 %)     10 (25.2 %)     11 (15.2 %)
        12 (52.6 %)     13 (15.7 %)     14 (34.8 %)     15 (29.0 %)
        16 (12.7 %)     17 (53.2 %)     18 (45.7 %)     19 (5.2 %)
        20 (20.0 %)     21 (37.1 %)     22 (21.8 %)     23 (11.5 %)
        24 (7.4 %)      25 (17.0 %)     26 (10.1 %)     27 (10.4 %)
        28 (20.8 %)     29 (90.8 %)     30 (40.3 %)     31 (11.7 %)
        32 (57.7 %)     33 (31.6 %)     34 (10.1 %)     35 (22.9 %)
        36 (6.9 %)      37 (22.8 %)     38 (19.6 %)     39 (9.4 %)
        40 (15.5 %)     41 (50.6 %)     42 (19.4 %)     43 (24.2 %)
        44 (8.2 %)      45 (18.3 %)     46 (10.2 %)     47 (45.4 %)
        48 (10.8 %)     49 (10.2 %)     50 (22.9 %)     51 (7.9 %)
        52 (9.2 %)      53 (8.5 %)      54 (11.5 %)     55 (16.8 %)
        56 (10.1 %)     57 (13.9 %)     58 (12.0 %)     59 (11.9 %)
        60 (48.2 %)     61 (48.3 %)     62 (14.8 %)     63 (5.8 %)
        64 (25.0 %)     65 (21.8 %)     66 (30.4 %)     67 (5.4 %)
        68 (18.7 %)     69 (66.0 %)     70 (16.2 %)     71 (8.7 %)
        72 (50.4 %)     73 (7.1 %)      74 (8.2 %)      75 (13.4 %)
        76 (14.3 %)     77 (12.1 %)     78 (17.3 %)     79 (23.7 %)
        80 (18.2 %)     81 (19.0 %)     82 (30.4 %)     83 (25.9 %)
        84 (9.2 %)      85 (32.4 %)     86 (31.0 %)     87 (12.9 %)
        88 (8.4 %)      89 (39.3 %)     90 (11.4 %)     91 (28.6 %)
        92 (10.9 %)     93 (10.8 %)     94 (56.5 %)     95 (57.6 %)
        Total: 2282.4%
Initial condition solution time: CPU = 0.000000e+00 s, elapsed = 0.000000e+00
        s.
Intrinsic tran analysis time:    CPU = 1.049300e-02 s, elapsed = 1.055408e-02
        s.
Total time required for tran analysis `timeSweep': CPU = 1.079400e-02 s,
        elapsed = 1.085281e-02 s.
Time accumulated: CPU = 2.898870e-01 s, elapsed = 1.136509e+01 s.
Peak resident memory used = 1.16e+08 bytes.


Notice from spectre.
    46 notices suppressed.


*************************************************************************
Transient Analysis `timeSweep': time = (0.000000e+00 s -> 1.000010e-07 s)
*************************************************************************

Notice from spectre during transient analysis `timeSweep'.
    There are 177 IC nodes defined.

Important parameter values:
    start = 0.000000e+00 s
    outputstart = 0.000000e+00 s
    stop = 1.000010e-07 s
    step = 1.000000e-12 s
    maxstep = 2.000020e-09 s
    ic = all
    useprevic = no
    skipdc = useprevic
    reltol = 1.000000e-03
    abstol(V) = 1.000000e-06 V
    abstol(I) = 1.000000e-12 A
    temp = -4.000000e+01 C
    tnom = 2.700000e+01 C
    tempeffects = all
    errpreset = moderate
    method = traponly
    lteratio = 3.500000e+00
    relref = sigglobal
    cmin = 0.000000e+00 F
    gmin = 1.000000e-12 S


Output and IC/nodeset summary:
                 nodeset        2       

....

Notice from spectre at time = 7.294058e-09 s during transient analysis
        `timeSweep'.
    Found trapezoidal ringing on node Voutn#14.

.....

Notice from spectre at time = 9.294078e-09 s during transient analysis
        `timeSweep'.
    Found trapezoidal ringing on node Voutn#14.

......9

Notice from spectre at time = 1.129410e-08 s during transient analysis
        `timeSweep'.
    Found trapezoidal ringing on node Voutn#14.

......9.

Notice from spectre at time = 1.329412e-08 s during transient analysis
        `timeSweep'.
    Found trapezoidal ringing on node Voutn#14.

......9..

Notice from spectre at time = 1.529414e-08 s during transient analysis
        `timeSweep'.
    Found trapezoidal ringing on node Voutn#14.
        Further occurrences of this notice will be suppressed.

......9......8......7......6......5......4......3......2......1......0
Number of accepted tran steps =             139

Notice from spectre during transient analysis `timeSweep'.
    Trapezoidal ringing is detected during tran analysis.
        Please use method=trap for better results and performance.


Maximum value achieved for any signal of each quantity: 
V: V(net4#7) = 2.118e+00 V
I: I(Vclk:p) = 1.318e-03 A
If your circuit contains signals of the same quantity that are vastly different
        in size (such as high voltage circuitry combined with low voltage
        control circuitry), you should consider specifying global option
        `bin_relref=yes'.

~~~~~~~~~~~~~~~~~~~~~~~~~~~~~~~~~
Post-Transient Simulation Summary
~~~~~~~~~~~~~~~~~~~~~~~~~~~~~~~~~
   -   To further speed up simulation, consider
          add ++aps on command line
~~~~~~~~~~~~~~~~~~~~~~~~~~~~~~~~~


During simulation, the CPU load for active processors is :
         0 (20.2 %)      1 (39.7 %)      2 (78.8 %)      3 (20.5 %)
         4 (19.8 %)      5 (11.1 %)      6 (19.5 %)      7 (45.1 %)
         8 (37.9 %)      9 (25.0 %)     10 (25.2 %)     11 (15.2 %)
        12 (52.5 %)     13 (15.6 %)     14 (34.8 %)     15 (29.0 %)
        16 (12.8 %)     17 (53.1 %)     18 (45.7 %)     19 (5.2 %)
        20 (20.0 %)     21 (37.0 %)     22 (21.8 %)     23 (11.5 %)
        24 (7.4 %)      25 (17.1 %)     26 (10.1 %)     27 (10.4 %)
        28 (20.8 %)     29 (90.8 %)     30 (40.3 %)     31 (11.7 %)
        32 (57.6 %)     33 (31.5 %)     34 (10.1 %)     35 (22.9 %)
        36 (6.9 %)      37 (22.7 %)     38 (19.7 %)     39 (9.3 %)
        40 (15.4 %)     41 (50.6 %)     42 (19.4 %)     43 (24.2 %)
        44 (8.3 %)      45 (18.3 %)     46 (10.2 %)     47 (45.4 %)
        48 (10.8 %)     49 (10.2 %)     50 (22.9 %)     51 (7.9 %)
        52 (9.2 %)      53 (8.5 %)      54 (11.5 %)     55 (16.8 %)
        56 (10.1 %)     57 (13.9 %)     58 (12.0 %)     59 (11.9 %)
        60 (48.2 %)     61 (48.3 %)     62 (14.7 %)     63 (5.8 %)
        64 (24.9 %)     65 (21.8 %)     66 (30.4 %)     67 (5.4 %)
        68 (18.6 %)     69 (66.1 %)     70 (16.2 %)     71 (8.7 %)
        72 (50.4 %)     73 (7.1 %)      74 (8.1 %)      75 (13.3 %)
        76 (14.3 %)     77 (12.1 %)     78 (17.3 %)     79 (23.6 %)
        80 (18.1 %)     81 (19.0 %)     82 (30.4 %)     83 (25.9 %)
        84 (9.2 %)      85 (32.4 %)     86 (31.0 %)     87 (12.8 %)
        88 (8.4 %)      89 (39.3 %)     90 (11.4 %)     91 (28.6 %)
        92 (10.8 %)     93 (10.8 %)     94 (56.4 %)     95 (57.7 %)
        Total: 2281.8%
Initial condition solution time: CPU = 0.000000e+00 s, elapsed = 0.000000e+00
        s.
Intrinsic tran analysis time:    CPU = 1.036800e-02 s, elapsed = 1.042986e-02
        s.
Total time required for tran analysis `timeSweep': CPU = 1.066000e-02 s,
        elapsed = 1.072001e-02 s.
Time accumulated: CPU = 3.007830e-01 s, elapsed = 1.137684e+01 s.
Peak resident memory used = 1.16e+08 bytes.


Notice from spectre.
    43 notices suppressed.


*************************************************************************
Transient Analysis `timeSweep': time = (0.000000e+00 s -> 1.000010e-07 s)
*************************************************************************

Notice from spectre during transient analysis `timeSweep'.
    There are 177 IC nodes defined.

Important parameter values:
    start = 0.000000e+00 s
    outputstart = 0.000000e+00 s
    stop = 1.000010e-07 s
    step = 1.000000e-12 s
    maxstep = 2.000020e-09 s
    ic = all
    useprevic = no
    skipdc = useprevic
    reltol = 1.000000e-03
    abstol(V) = 1.000000e-06 V
    abstol(I) = 1.000000e-12 A
    temp = -4.000000e+01 C
    tnom = 2.700000e+01 C
    tempeffects = all
    errpreset = moderate
    method = traponly
    lteratio = 3.500000e+00
    relref = sigglobal
    cmin = 0.000000e+00 F
    gmin = 1.000000e-12 S


Output and IC/nodeset summary:
                 nodeset        2       

......9......8......7......6......5......4......3......2......1......0
Number of accepted tran steps =             137

Notice from spectre during transient analysis `timeSweep'.
    Trapezoidal ringing is detected during tran analysis.
        Please use method=trap for better results and performance.


Maximum value achieved for any signal of each quantity: 
V: V(net4#7) = 2.117e+00 V
I: I(Vclk:p) = 1.319e-03 A
If your circuit contains signals of the same quantity that are vastly different
        in size (such as high voltage circuitry combined with low voltage
        control circuitry), you should consider specifying global option
        `bin_relref=yes'.

~~~~~~~~~~~~~~~~~~~~~~~~~~~~~~~~~
Post-Transient Simulation Summary
~~~~~~~~~~~~~~~~~~~~~~~~~~~~~~~~~
   -   To further speed up simulation, consider
          add ++aps on command line
~~~~~~~~~~~~~~~~~~~~~~~~~~~~~~~~~


During simulation, the CPU load for active processors is :
         0 (20.2 %)      1 (39.6 %)      2 (78.9 %)      3 (20.4 %)
         4 (19.8 %)      5 (11.0 %)      6 (19.6 %)      7 (45.0 %)
         8 (37.8 %)      9 (25.0 %)     10 (25.2 %)     11 (15.2 %)
        12 (52.5 %)     13 (15.6 %)     14 (34.9 %)     15 (28.9 %)
        16 (13.0 %)     17 (53.0 %)     18 (45.6 %)     19 (5.2 %)
        20 (20.0 %)     21 (37.0 %)     22 (21.9 %)     23 (11.5 %)
        24 (7.4 %)      25 (17.2 %)     26 (10.1 %)     27 (10.5 %)
        28 (20.7 %)     29 (90.8 %)     30 (40.2 %)     31 (11.8 %)
        32 (57.6 %)     33 (31.5 %)     34 (10.1 %)     35 (22.9 %)
        36 (6.9 %)      37 (22.7 %)     38 (19.8 %)     39 (9.3 %)
        40 (15.4 %)     41 (50.5 %)     42 (19.4 %)     43 (24.2 %)
        44 (8.3 %)      45 (18.3 %)     46 (10.2 %)     47 (45.4 %)
        48 (10.8 %)     49 (10.2 %)     50 (22.8 %)     51 (7.9 %)
        52 (9.2 %)      53 (8.5 %)      54 (11.5 %)     55 (16.7 %)
        56 (10.1 %)     57 (14.0 %)     58 (12.0 %)     59 (12.0 %)
        60 (48.3 %)     61 (48.2 %)     62 (14.7 %)     63 (5.8 %)
        64 (24.9 %)     65 (21.7 %)     66 (30.3 %)     67 (5.4 %)
        68 (18.6 %)     69 (66.1 %)     70 (16.2 %)     71 (8.7 %)
        72 (50.5 %)     73 (7.1 %)      74 (8.1 %)      75 (13.3 %)
        76 (14.3 %)     77 (12.0 %)     78 (17.3 %)     79 (23.6 %)
        80 (18.1 %)     81 (19.0 %)     82 (30.4 %)     83 (25.9 %)
        84 (9.2 %)      85 (32.3 %)     86 (31.0 %)     87 (12.8 %)
        88 (8.4 %)      89 (39.3 %)     90 (11.4 %)     91 (28.5 %)
        92 (10.8 %)     93 (10.7 %)     94 (56.4 %)     95 (57.7 %)
        Total: 2281.0%
Initial condition solution time: CPU = 0.000000e+00 s, elapsed = 0.000000e+00
        s.
Intrinsic tran analysis time:    CPU = 9.924000e-03 s, elapsed = 9.978056e-03
        s.
Total time required for tran analysis `timeSweep': CPU = 1.022400e-02 s,
        elapsed = 1.027894e-02 s.
Time accumulated: CPU = 3.112440e-01 s, elapsed = 1.138980e+01 s.
Peak resident memory used = 1.16e+08 bytes.


*************************************************************************
Transient Analysis `timeSweep': time = (0.000000e+00 s -> 1.000010e-07 s)
*************************************************************************

Notice from spectre during transient analysis `timeSweep'.
    There are 177 IC nodes defined.

Important parameter values:
    start = 0.000000e+00 s
    outputstart = 0.000000e+00 s
    stop = 1.000010e-07 s
    step = 1.000000e-12 s
    maxstep = 2.000020e-09 s
    ic = all
    useprevic = no
    skipdc = useprevic
    reltol = 1.000000e-03
    abstol(V) = 1.000000e-06 V
    abstol(I) = 1.000000e-12 A
    temp = -4.000000e+01 C
    tnom = 2.700000e+01 C
    tempeffects = all
    errpreset = moderate
    method = traponly
    lteratio = 3.500000e+00
    relref = sigglobal
    cmin = 0.000000e+00 F
    gmin = 1.000000e-12 S


Output and IC/nodeset summary:
                 nodeset        2       

.....

Notice from spectre at time = 8.944027e-09 s during transient analysis
        `timeSweep'.
    Found trapezoidal ringing on node Vclk:p.

......

Notice from spectre at time = 1.094405e-08 s during transient analysis
        `timeSweep'.
    Found trapezoidal ringing on node Vclk:p.

......9.

Notice from spectre at time = 1.294407e-08 s during transient analysis
        `timeSweep'.
    Found trapezoidal ringing on node Vclk:p.

......9..

Notice from spectre at time = 1.494409e-08 s during transient analysis
        `timeSweep'.
    Found trapezoidal ringing on node Vclk:p.

......9...

Notice from spectre at time = 1.694411e-08 s during transient analysis
        `timeSweep'.
    Found trapezoidal ringing on node Vclk:p.
        Further occurrences of this notice will be suppressed.

......9......8......7......6......5......4......3......2......1......0
Number of accepted tran steps =             142

Notice from spectre during transient analysis `timeSweep'.
    Trapezoidal ringing is detected during tran analysis.
        Please use method=trap for better results and performance.


Maximum value achieved for any signal of each quantity: 
V: V(net4#7) = 2.116e+00 V
I: I(Vclk:p) = 1.320e-03 A
If your circuit contains signals of the same quantity that are vastly different
        in size (such as high voltage circuitry combined with low voltage
        control circuitry), you should consider specifying global option
        `bin_relref=yes'.

~~~~~~~~~~~~~~~~~~~~~~~~~~~~~~~~~
Post-Transient Simulation Summary
~~~~~~~~~~~~~~~~~~~~~~~~~~~~~~~~~
   -   To further speed up simulation, consider
          add ++aps on command line
~~~~~~~~~~~~~~~~~~~~~~~~~~~~~~~~~


During simulation, the CPU load for active processors is :
         0 (20.2 %)      1 (39.6 %)      2 (78.9 %)      3 (20.5 %)
         4 (19.8 %)      5 (11.0 %)      6 (19.6 %)      7 (45.1 %)
         8 (37.8 %)      9 (25.0 %)     10 (25.2 %)     11 (15.2 %)
        12 (52.5 %)     13 (15.6 %)     14 (34.9 %)     15 (28.9 %)
        16 (13.0 %)     17 (53.0 %)     18 (45.6 %)     19 (5.2 %)
        20 (19.9 %)     21 (37.0 %)     22 (22.0 %)     23 (11.4 %)
        24 (7.3 %)      25 (17.2 %)     26 (10.1 %)     27 (10.5 %)
        28 (20.7 %)     29 (90.8 %)     30 (40.2 %)     31 (11.9 %)
        32 (57.5 %)     33 (31.5 %)     34 (10.1 %)     35 (22.9 %)
        36 (6.9 %)      37 (22.7 %)     38 (19.9 %)     39 (9.3 %)
        40 (15.4 %)     41 (50.4 %)     42 (19.3 %)     43 (24.2 %)
        44 (8.3 %)      45 (18.2 %)     46 (10.2 %)     47 (45.3 %)
        48 (10.8 %)     49 (10.2 %)     50 (22.8 %)     51 (7.9 %)
        52 (9.2 %)      53 (8.5 %)      54 (11.5 %)     55 (16.7 %)
        56 (10.1 %)     57 (14.0 %)     58 (12.0 %)     59 (12.0 %)
        60 (48.4 %)     61 (48.1 %)     62 (14.7 %)     63 (5.8 %)
        64 (24.9 %)     65 (21.7 %)     66 (30.3 %)     67 (5.4 %)
        68 (18.6 %)     69 (66.1 %)     70 (16.1 %)     71 (8.7 %)
        72 (50.6 %)     73 (7.1 %)      74 (8.1 %)      75 (13.3 %)
        76 (14.3 %)     77 (12.0 %)     78 (17.2 %)     79 (23.6 %)
        80 (18.1 %)     81 (18.9 %)     82 (30.5 %)     83 (25.9 %)
        84 (9.1 %)      85 (32.3 %)     86 (30.9 %)     87 (12.8 %)
        88 (8.4 %)      89 (39.2 %)     90 (11.3 %)     91 (28.5 %)
        92 (10.8 %)     93 (10.7 %)     94 (56.2 %)     95 (57.8 %)
        Total: 2280.5%
Initial condition solution time: CPU = 0.000000e+00 s, elapsed = 0.000000e+00
        s.
Intrinsic tran analysis time:    CPU = 1.061200e-02 s, elapsed = 1.066899e-02
        s.
Total time required for tran analysis `timeSweep': CPU = 1.091000e-02 s,
        elapsed = 1.096606e-02 s.
Time accumulated: CPU = 3.223960e-01 s, elapsed = 1.140165e+01 s.
Peak resident memory used = 1.16e+08 bytes.


Notice from spectre.
    42 notices suppressed.


*************************************************************************
Transient Analysis `timeSweep': time = (0.000000e+00 s -> 1.000010e-07 s)
*************************************************************************

Notice from spectre during transient analysis `timeSweep'.
    There are 177 IC nodes defined.

Important parameter values:
    start = 0.000000e+00 s
    outputstart = 0.000000e+00 s
    stop = 1.000010e-07 s
    step = 1.000000e-12 s
    maxstep = 2.000020e-09 s
    ic = all
    useprevic = no
    skipdc = useprevic
    reltol = 1.000000e-03
    abstol(V) = 1.000000e-06 V
    abstol(I) = 1.000000e-12 A
    temp = -4.000000e+01 C
    tnom = 2.700000e+01 C
    tempeffects = all
    errpreset = moderate
    method = traponly
    lteratio = 3.500000e+00
    relref = sigglobal
    cmin = 0.000000e+00 F
    gmin = 1.000000e-12 S


Output and IC/nodeset summary:
                 nodeset        2       

......9...

Notice from spectre at time = 1.670517e-08 s during transient analysis
        `timeSweep'.
    Found trapezoidal ringing on node Voutn#14.

......9.....

Notice from spectre at time = 1.870519e-08 s during transient analysis
        `timeSweep'.
    Found trapezoidal ringing on node Voutn#14.

......9......

Notice from spectre at time = 2.070521e-08 s during transient analysis
        `timeSweep'.
    Found trapezoidal ringing on node Voutn#14.

......9......8

Notice from spectre at time = 2.270523e-08 s during transient analysis
        `timeSweep'.
    Found trapezoidal ringing on node Voutn#14.

......9......8..

Notice from spectre at time = 2.470525e-08 s during transient analysis
        `timeSweep'.
    Found trapezoidal ringing on node Voutn#14.
        Further occurrences of this notice will be suppressed.

......9......8......7......6......5......4......3......2......1......0
Number of accepted tran steps =             145

Notice from spectre during transient analysis `timeSweep'.
    Trapezoidal ringing is detected during tran analysis.
        Please use method=trap for better results and performance.


Maximum value achieved for any signal of each quantity: 
V: V(net4#7) = 2.116e+00 V
I: I(Vclk:p) = 1.320e-03 A
If your circuit contains signals of the same quantity that are vastly different
        in size (such as high voltage circuitry combined with low voltage
        control circuitry), you should consider specifying global option
        `bin_relref=yes'.

~~~~~~~~~~~~~~~~~~~~~~~~~~~~~~~~~
Post-Transient Simulation Summary
~~~~~~~~~~~~~~~~~~~~~~~~~~~~~~~~~
   -   To further speed up simulation, consider
          add ++aps on command line
~~~~~~~~~~~~~~~~~~~~~~~~~~~~~~~~~


During simulation, the CPU load for active processors is :
         0 (20.2 %)      1 (39.6 %)      2 (78.9 %)      3 (20.5 %)
         4 (19.8 %)      5 (11.0 %)      6 (19.6 %)      7 (45.1 %)
         8 (37.9 %)      9 (25.0 %)     10 (25.2 %)     11 (15.2 %)
        12 (52.4 %)     13 (15.6 %)     14 (35.0 %)     15 (28.9 %)
        16 (13.2 %)     17 (52.9 %)     18 (45.5 %)     19 (5.2 %)
        20 (20.0 %)     21 (36.9 %)     22 (22.1 %)     23 (11.4 %)
        24 (7.3 %)      25 (17.3 %)     26 (10.1 %)     27 (10.5 %)
        28 (20.7 %)     29 (90.8 %)     30 (40.1 %)     31 (12.1 %)
        32 (57.5 %)     33 (31.4 %)     34 (10.2 %)     35 (22.9 %)
        36 (7.0 %)      37 (22.7 %)     38 (20.0 %)     39 (9.3 %)
        40 (15.4 %)     41 (50.4 %)     42 (19.3 %)     43 (24.3 %)
        44 (8.3 %)      45 (18.2 %)     46 (10.2 %)     47 (45.2 %)
        48 (10.8 %)     49 (10.2 %)     50 (22.8 %)     51 (7.9 %)
        52 (9.2 %)      53 (8.5 %)      54 (11.5 %)     55 (16.7 %)
        56 (10.1 %)     57 (14.0 %)     58 (12.0 %)     59 (12.0 %)
        60 (48.4 %)     61 (48.1 %)     62 (14.7 %)     63 (5.8 %)
        64 (24.8 %)     65 (21.7 %)     66 (30.3 %)     67 (5.5 %)
        68 (18.6 %)     69 (66.2 %)     70 (16.1 %)     71 (8.7 %)
        72 (50.6 %)     73 (7.0 %)      74 (8.1 %)      75 (13.4 %)
        76 (14.2 %)     77 (12.0 %)     78 (17.2 %)     79 (23.6 %)
        80 (18.1 %)     81 (18.9 %)     82 (30.4 %)     83 (25.9 %)
        84 (9.1 %)      85 (32.4 %)     86 (30.9 %)     87 (12.9 %)
        88 (8.4 %)      89 (39.2 %)     90 (11.3 %)     91 (28.5 %)
        92 (10.8 %)     93 (10.7 %)     94 (56.2 %)     95 (57.8 %)
        Total: 2280.6%
Initial condition solution time: CPU = 0.000000e+00 s, elapsed = 0.000000e+00
        s.
Intrinsic tran analysis time:    CPU = 1.093000e-02 s, elapsed = 1.098990e-02
        s.
Total time required for tran analysis `timeSweep': CPU = 1.123400e-02 s,
        elapsed = 1.129699e-02 s.
Time accumulated: CPU = 3.338870e-01 s, elapsed = 1.141485e+01 s.
Peak resident memory used = 1.16e+08 bytes.


Notice from spectre.
    38 notices suppressed.


*************************************************************************
Transient Analysis `timeSweep': time = (0.000000e+00 s -> 1.000010e-07 s)
*************************************************************************

Notice from spectre during transient analysis `timeSweep'.
    There are 177 IC nodes defined.

Important parameter values:
    start = 0.000000e+00 s
    outputstart = 0.000000e+00 s
    stop = 1.000010e-07 s
    step = 1.000000e-12 s
    maxstep = 2.000020e-09 s
    ic = all
    useprevic = no
    skipdc = useprevic
    reltol = 1.000000e-03
    abstol(V) = 1.000000e-06 V
    abstol(I) = 1.000000e-12 A
    temp = -4.000000e+01 C
    tnom = 2.700000e+01 C
    tempeffects = all
    errpreset = moderate
    method = traponly
    lteratio = 3.500000e+00
    relref = sigglobal
    cmin = 0.000000e+00 F
    gmin = 1.000000e-12 S


Output and IC/nodeset summary:
                 nodeset        2       

......9..

Notice from spectre at time = 1.463371e-08 s during transient analysis
        `timeSweep'.
    Found trapezoidal ringing on node VVSS:p.

......9...

Notice from spectre at time = 1.663373e-08 s during transient analysis
        `timeSweep'.
    Found trapezoidal ringing on node VVSS:p.

......9.....

Notice from spectre at time = 1.863375e-08 s during transient analysis
        `timeSweep'.
    Found trapezoidal ringing on node VVSS:p.

......9......

Notice from spectre at time = 2.063377e-08 s during transient analysis
        `timeSweep'.
    Found trapezoidal ringing on node VVSS:p.

......9......8

Notice from spectre at time = 2.263379e-08 s during transient analysis
        `timeSweep'.
    Found trapezoidal ringing on node VVSS:p.
        Further occurrences of this notice will be suppressed.

......9......8......7......6......5......4......3......2......1......0
Number of accepted tran steps =             141

Notice from spectre during transient analysis `timeSweep'.
    Trapezoidal ringing is detected during tran analysis.
        Please use method=trap for better results and performance.


Maximum value achieved for any signal of each quantity: 
V: V(net4#7) = 2.116e+00 V
I: I(Vclk:p) = 1.320e-03 A
If your circuit contains signals of the same quantity that are vastly different
        in size (such as high voltage circuitry combined with low voltage
        control circuitry), you should consider specifying global option
        `bin_relref=yes'.

~~~~~~~~~~~~~~~~~~~~~~~~~~~~~~~~~
Post-Transient Simulation Summary
~~~~~~~~~~~~~~~~~~~~~~~~~~~~~~~~~
   -   To further speed up simulation, consider
          add ++aps on command line
~~~~~~~~~~~~~~~~~~~~~~~~~~~~~~~~~


During simulation, the CPU load for active processors is :
         0 (20.2 %)      1 (39.5 %)      2 (78.9 %)      3 (20.5 %)
         4 (19.9 %)      5 (11.1 %)      6 (19.7 %)      7 (45.1 %)
         8 (38.0 %)      9 (24.9 %)     10 (25.2 %)     11 (15.2 %)
        12 (52.3 %)     13 (15.6 %)     14 (35.1 %)     15 (28.8 %)
        16 (13.3 %)     17 (52.9 %)     18 (45.5 %)     19 (5.2 %)
        20 (20.1 %)     21 (36.9 %)     22 (22.1 %)     23 (11.4 %)
        24 (7.3 %)      25 (17.5 %)     26 (10.1 %)     27 (10.5 %)
        28 (20.7 %)     29 (90.8 %)     30 (40.2 %)     31 (12.1 %)
        32 (57.6 %)     33 (31.4 %)     34 (10.2 %)     35 (22.9 %)
        36 (7.0 %)      37 (22.6 %)     38 (20.1 %)     39 (9.3 %)
        40 (15.4 %)     41 (50.4 %)     42 (19.3 %)     43 (24.2 %)
        44 (8.3 %)      45 (18.3 %)     46 (10.1 %)     47 (45.2 %)
        48 (10.7 %)     49 (10.2 %)     50 (22.8 %)     51 (7.8 %)
        52 (9.2 %)      53 (8.5 %)      54 (11.5 %)     55 (16.7 %)
        56 (10.1 %)     57 (14.1 %)     58 (12.0 %)     59 (12.0 %)
        60 (48.4 %)     61 (48.0 %)     62 (14.7 %)     63 (5.8 %)
        64 (24.8 %)     65 (21.7 %)     66 (30.2 %)     67 (5.4 %)
        68 (18.6 %)     69 (66.2 %)     70 (16.1 %)     71 (8.6 %)
        72 (50.6 %)     73 (7.0 %)      74 (8.2 %)      75 (13.5 %)
        76 (14.2 %)     77 (12.0 %)     78 (17.2 %)     79 (23.5 %)
        80 (18.1 %)     81 (18.9 %)     82 (30.4 %)     83 (25.9 %)
        84 (9.1 %)      85 (32.4 %)     86 (30.9 %)     87 (13.0 %)
        88 (8.4 %)      89 (39.3 %)     90 (11.4 %)     91 (28.4 %)
        92 (10.8 %)     93 (10.7 %)     94 (56.1 %)     95 (57.9 %)
        Total: 2281.1%
Initial condition solution time: CPU = 0.000000e+00 s, elapsed = 0.000000e+00
        s.
Intrinsic tran analysis time:    CPU = 1.086900e-02 s, elapsed = 1.093197e-02
        s.
Total time required for tran analysis `timeSweep': CPU = 1.118600e-02 s,
        elapsed = 1.124787e-02 s.
Time accumulated: CPU = 3.453630e-01 s, elapsed = 1.142691e+01 s.
Peak resident memory used = 1.16e+08 bytes.


Notice from spectre.
    39 notices suppressed.


*************************************************************************
Transient Analysis `timeSweep': time = (0.000000e+00 s -> 1.000010e-07 s)
*************************************************************************

Notice from spectre during transient analysis `timeSweep'.
    There are 177 IC nodes defined.

Important parameter values:
    start = 0.000000e+00 s
    outputstart = 0.000000e+00 s
    stop = 1.000010e-07 s
    step = 1.000000e-12 s
    maxstep = 2.000020e-09 s
    ic = all
    useprevic = no
    skipdc = useprevic
    reltol = 1.000000e-03
    abstol(V) = 1.000000e-06 V
    abstol(I) = 1.000000e-12 A
    temp = -4.000000e+01 C
    tnom = 2.700000e+01 C
    tempeffects = all
    errpreset = moderate
    method = traponly
    lteratio = 3.500000e+00
    relref = sigglobal
    cmin = 0.000000e+00 F
    gmin = 1.000000e-12 S


Output and IC/nodeset summary:
                 nodeset        2       

...

Notice from spectre at time = 6.581375e-09 s during transient analysis
        `timeSweep'.
    Found trapezoidal ringing on node Voutn#14.

.....

Notice from spectre at time = 8.581395e-09 s during transient analysis
        `timeSweep'.
    Found trapezoidal ringing on node Voutn#14.

......

Notice from spectre at time = 1.058141e-08 s during transient analysis
        `timeSweep'.
    Found trapezoidal ringing on node Voutn#14.

......9

Notice from spectre at time = 1.258143e-08 s during transient analysis
        `timeSweep'.
    Found trapezoidal ringing on node Voutn#14.

......9..

Notice from spectre at time = 1.458145e-08 s during transient analysis
        `timeSweep'.
    Found trapezoidal ringing on node Voutn#14.
        Further occurrences of this notice will be suppressed.

......9......8......7......6......5......4......3......2......1......0
Number of accepted tran steps =             131

Notice from spectre during transient analysis `timeSweep'.
    Trapezoidal ringing is detected during tran analysis.
        Please use method=trap for better results and performance.


Maximum value achieved for any signal of each quantity: 
V: V(net4#7) = 2.066e+00 V
I: I(Vclk:p) = 4.861e-04 A
If your circuit contains signals of the same quantity that are vastly different
        in size (such as high voltage circuitry combined with low voltage
        control circuitry), you should consider specifying global option
        `bin_relref=yes'.

~~~~~~~~~~~~~~~~~~~~~~~~~~~~~~~~~
Post-Transient Simulation Summary
~~~~~~~~~~~~~~~~~~~~~~~~~~~~~~~~~
   -   To further speed up simulation, consider
          add ++aps on command line
~~~~~~~~~~~~~~~~~~~~~~~~~~~~~~~~~


During simulation, the CPU load for active processors is :
         0 (20.2 %)      1 (39.5 %)      2 (79.0 %)      3 (20.5 %)
         4 (19.8 %)      5 (11.1 %)      6 (19.8 %)      7 (45.1 %)
         8 (38.0 %)      9 (24.9 %)     10 (25.2 %)     11 (15.2 %)
        12 (52.3 %)     13 (15.6 %)     14 (35.2 %)     15 (28.9 %)
        16 (13.4 %)     17 (52.8 %)     18 (45.5 %)     19 (5.2 %)
        20 (20.1 %)     21 (36.8 %)     22 (22.2 %)     23 (11.5 %)
[...]
        76 (14.2 %)     77 (12.7 %)     78 (16.8 %)     79 (22.9 %)
        80 (18.4 %)     81 (18.7 %)     82 (29.5 %)     83 (27.0 %)
        84 (8.8 %)      85 (31.7 %)     86 (29.8 %)     87 (14.4 %)
        88 (8.1 %)      89 (39.6 %)     90 (13.3 %)     91 (27.5 %)
        92 (10.9 %)     93 (11.8 %)     94 (54.3 %)     95 (59.3 %)
        Total: 2289.4%
Initial condition solution time: CPU = 0.000000e+00 s, elapsed = 0.000000e+00
        s.
Intrinsic tran analysis time:    CPU = 1.184900e-02 s, elapsed = 1.191592e-02
        s.
Total time required for tran analysis `timeSweep': CPU = 1.221100e-02 s,
        elapsed = 1.228189e-02 s.
Time accumulated: CPU = 7.066860e-01 s, elapsed = 1.182274e+01 s.
Peak resident memory used = 1.17e+08 bytes.


Notice from spectre.
    43 notices suppressed.


*************************************************************************
Transient Analysis `timeSweep': time = (0.000000e+00 s -> 1.000010e-07 s)
*************************************************************************

Notice from spectre during transient analysis `timeSweep'.
    There are 177 IC nodes defined.

Important parameter values:
    start = 0.000000e+00 s
    outputstart = 0.000000e+00 s
    stop = 1.000010e-07 s
    step = 1.000000e-12 s
    maxstep = 2.000020e-09 s
    ic = all
    useprevic = no
    skipdc = useprevic
    reltol = 1.000000e-03
    abstol(V) = 1.000000e-06 V
    abstol(I) = 1.000000e-12 A
    temp = -4.000000e+01 C
    tnom = 2.700000e+01 C
    tempeffects = all
    errpreset = moderate
    method = traponly
    lteratio = 3.500000e+00
    relref = sigglobal
    cmin = 0.000000e+00 F
    gmin = 1.000000e-12 S


Output and IC/nodeset summary:
                 nodeset        2       

....

Notice from spectre at time = 8.233615e-09 s during transient analysis
        `timeSweep'.
    Found trapezoidal ringing on node Vclk:p.

......

Notice from spectre at time = 1.023364e-08 s during transient analysis
        `timeSweep'.
    Found trapezoidal ringing on node Vclk:p.

......9

Notice from spectre at time = 1.223366e-08 s during transient analysis
        `timeSweep'.
    Found trapezoidal ringing on node Vclk:p.

......9..

Notice from spectre at time = 1.423368e-08 s during transient analysis
        `timeSweep'.
    Found trapezoidal ringing on node Vclk:p.

......9...

Notice from spectre at time = 1.623370e-08 s during transient analysis
        `timeSweep'.
    Found trapezoidal ringing on node Vclk:p.
        Further occurrences of this notice will be suppressed.

......9......8......7......6......5......4......3......2......1......0
Number of accepted tran steps =             132

Notice from spectre during transient analysis `timeSweep'.
    Trapezoidal ringing is detected during tran analysis.
        Please use method=trap for better results and performance.


Maximum value achieved for any signal of each quantity: 
V: V(net4#5) = 1.952e+00 V
I: I(VVSS:p) = 6.691e-05 A
If your circuit contains signals of the same quantity that are vastly different
        in size (such as high voltage circuitry combined with low voltage
        control circuitry), you should consider specifying global option
        `bin_relref=yes'.

~~~~~~~~~~~~~~~~~~~~~~~~~~~~~~~~~
Post-Transient Simulation Summary
~~~~~~~~~~~~~~~~~~~~~~~~~~~~~~~~~
   -   To further speed up simulation, consider
          add ++aps on command line
~~~~~~~~~~~~~~~~~~~~~~~~~~~~~~~~~


During simulation, the CPU load for active processors is :
         0 (20.1 %)      1 (38.6 %)      2 (79.7 %)      3 (20.3 %)
         4 (19.7 %)      5 (11.0 %)      6 (22.6 %)      7 (44.4 %)
         8 (38.1 %)      9 (25.4 %)     10 (24.9 %)     11 (15.7 %)
        12 (50.8 %)     13 (15.3 %)     14 (37.4 %)     15 (28.2 %)
        16 (16.3 %)     17 (51.0 %)     18 (43.9 %)     19 (5.1 %)
        20 (21.6 %)     21 (35.6 %)     22 (24.9 %)     23 (11.6 %)
        24 (7.4 %)      25 (19.0 %)     26 (11.7 %)     27 (10.4 %)
        28 (20.5 %)     29 (90.4 %)     30 (40.4 %)     31 (12.9 %)
        32 (56.8 %)     33 (30.8 %)     34 (10.7 %)     35 (22.6 %)
        36 (8.3 %)      37 (21.9 %)     38 (22.9 %)     39 (9.1 %)
        40 (15.1 %)     41 (48.8 %)     42 (18.8 %)     43 (23.6 %)
        44 (8.3 %)      45 (18.8 %)     46 (10.3 %)     47 (43.6 %)
        48 (11.6 %)     49 (10.0 %)     50 (22.0 %)     51 (7.9 %)
        52 (9.1 %)      53 (8.5 %)      54 (11.5 %)     55 (16.2 %)
        56 (10.8 %)     57 (14.6 %)     58 (12.2 %)     59 (12.3 %)
        60 (50.3 %)     61 (46.4 %)     62 (14.3 %)     63 (5.6 %)
        64 (24.2 %)     65 (20.9 %)     66 (29.4 %)     67 (5.6 %)
        68 (17.9 %)     69 (67.4 %)     70 (15.5 %)     71 (8.5 %)
        72 (52.0 %)     73 (7.1 %)      74 (8.5 %)      75 (14.4 %)
        76 (14.2 %)     77 (12.7 %)     78 (16.8 %)     79 (23.0 %)
        80 (18.5 %)     81 (18.8 %)     82 (29.5 %)     83 (27.1 %)
        84 (8.8 %)      85 (31.7 %)     86 (29.8 %)     87 (14.4 %)
        88 (8.1 %)      89 (39.5 %)     90 (13.3 %)     91 (27.5 %)
        92 (10.9 %)     93 (11.8 %)     94 (54.3 %)     95 (59.3 %)
        Total: 2289.9%
Initial condition solution time: CPU = 0.000000e+00 s, elapsed = 0.000000e+00
        s.
Intrinsic tran analysis time:    CPU = 1.230000e-02 s, elapsed = 1.238298e-02
        s.
Total time required for tran analysis `timeSweep': CPU = 1.262200e-02 s,
        elapsed = 1.270199e-02 s.
Time accumulated: CPU = 7.196230e-01 s, elapsed = 1.183594e+01 s.
Peak resident memory used = 1.17e+08 bytes.


Notice from spectre.
    42 notices suppressed.


*************************************************************************
Transient Analysis `timeSweep': time = (0.000000e+00 s -> 1.000010e-07 s)
*************************************************************************

Notice from spectre during transient analysis `timeSweep'.
    There are 177 IC nodes defined.

Important parameter values:
    start = 0.000000e+00 s
    outputstart = 0.000000e+00 s
    stop = 1.000010e-07 s
    step = 1.000000e-12 s
    maxstep = 2.000020e-09 s
    ic = all
    useprevic = no
    skipdc = useprevic
    reltol = 1.000000e-03
    abstol(V) = 1.000000e-06 V
    abstol(I) = 1.000000e-12 A
    temp = -4.000000e+01 C
    tnom = 2.700000e+01 C
    tempeffects = all
    errpreset = moderate
    method = traponly
    lteratio = 3.500000e+00
    relref = sigglobal
    cmin = 0.000000e+00 F
    gmin = 1.000000e-12 S


Output and IC/nodeset summary:
                 nodeset        2       

......9.

Notice from spectre at time = 1.271501e-08 s during transient analysis
        `timeSweep'.
    Found trapezoidal ringing on node VVDD:p.

......9..

Notice from spectre at time = 1.471503e-08 s during transient analysis
        `timeSweep'.
    Found trapezoidal ringing on node VVDD:p.

......9...

Notice from spectre at time = 1.671505e-08 s during transient analysis
        `timeSweep'.
    Found trapezoidal ringing on node VVDD:p.

......9.....

Notice from spectre at time = 1.871507e-08 s during transient analysis
        `timeSweep'.
    Found trapezoidal ringing on node VVDD:p.

......9......

Notice from spectre at time = 2.071509e-08 s during transient analysis
        `timeSweep'.
    Found trapezoidal ringing on node VVDD:p.
        Further occurrences of this notice will be suppressed.

......9......8......7......6......5......4......3......2......1......0
Number of accepted tran steps =             133

Notice from spectre during transient analysis `timeSweep'.
    Trapezoidal ringing is detected during tran analysis.
        Please use method=trap for better results and performance.


Maximum value achieved for any signal of each quantity: 
V: V(net4#5) = 1.952e+00 V
I: I(VVSS:p) = 9.028e-05 A
If your circuit contains signals of the same quantity that are vastly different
        in size (such as high voltage circuitry combined with low voltage
        control circuitry), you should consider specifying global option
        `bin_relref=yes'.

~~~~~~~~~~~~~~~~~~~~~~~~~~~~~~~~~
Post-Transient Simulation Summary
~~~~~~~~~~~~~~~~~~~~~~~~~~~~~~~~~
   -   To further speed up simulation, consider
          add ++aps on command line
~~~~~~~~~~~~~~~~~~~~~~~~~~~~~~~~~


During simulation, the CPU load for active processors is :
         0 (20.0 %)      1 (38.5 %)      2 (79.7 %)      3 (20.4 %)
         4 (19.7 %)      5 (11.0 %)      6 (22.7 %)      7 (44.4 %)
         8 (38.1 %)      9 (25.4 %)     10 (24.9 %)     11 (15.7 %)
        12 (50.8 %)     13 (15.3 %)     14 (37.4 %)     15 (28.2 %)
        16 (16.4 %)     17 (51.0 %)     18 (43.9 %)     19 (5.1 %)
        20 (21.6 %)     21 (35.6 %)     22 (25.0 %)     23 (11.8 %)
        24 (7.4 %)      25 (19.0 %)     26 (11.7 %)     27 (10.4 %)
        28 (20.6 %)     29 (90.4 %)     30 (40.4 %)     31 (13.0 %)
        32 (56.8 %)     33 (30.9 %)     34 (10.7 %)     35 (22.7 %)
        36 (8.3 %)      37 (21.9 %)     38 (23.0 %)     39 (9.0 %)
        40 (15.1 %)     41 (48.7 %)     42 (18.9 %)     43 (23.6 %)
        44 (8.3 %)      45 (18.8 %)     46 (10.3 %)     47 (43.6 %)
        48 (11.6 %)     49 (10.0 %)     50 (21.9 %)     51 (7.9 %)
        52 (9.1 %)      53 (8.5 %)      54 (11.5 %)     55 (16.2 %)
        56 (10.8 %)     57 (14.7 %)     58 (12.2 %)     59 (12.3 %)
        60 (50.3 %)     61 (46.3 %)     62 (14.3 %)     63 (5.6 %)
        64 (24.3 %)     65 (20.9 %)     66 (29.3 %)     67 (5.6 %)
        68 (17.9 %)     69 (67.4 %)     70 (15.5 %)     71 (8.5 %)
        72 (51.9 %)     73 (7.0 %)      74 (8.5 %)      75 (14.3 %)
        76 (14.2 %)     77 (12.7 %)     78 (16.9 %)     79 (23.0 %)
        80 (18.5 %)     81 (18.9 %)     82 (29.5 %)     83 (27.1 %)
        84 (8.8 %)      85 (31.6 %)     86 (29.8 %)     87 (14.4 %)
        88 (8.1 %)      89 (39.5 %)     90 (13.2 %)     91 (27.4 %)
        92 (10.9 %)     93 (11.9 %)     94 (54.2 %)     95 (59.4 %)
        Total: 2290.6%
Initial condition solution time: CPU = 0.000000e+00 s, elapsed = 0.000000e+00
        s.
Intrinsic tran analysis time:    CPU = 1.208300e-02 s, elapsed = 1.214910e-02
        s.
Total time required for tran analysis `timeSweep': CPU = 1.238500e-02 s,
        elapsed = 1.245499e-02 s.
Time accumulated: CPU = 7.322910e-01 s, elapsed = 1.184881e+01 s.
Peak resident memory used = 1.17e+08 bytes.


Notice from spectre.
    40 notices suppressed.


*************************************************************************
Transient Analysis `timeSweep': time = (0.000000e+00 s -> 1.000010e-07 s)
*************************************************************************

Notice from spectre during transient analysis `timeSweep'.
    There are 177 IC nodes defined.

Important parameter values:
    start = 0.000000e+00 s
    outputstart = 0.000000e+00 s
    stop = 1.000010e-07 s
    step = 1.000000e-12 s
    maxstep = 2.000020e-09 s
    ic = all
    useprevic = no
    skipdc = useprevic
    reltol = 1.000000e-03
    abstol(V) = 1.000000e-06 V
    abstol(I) = 1.000000e-12 A
    temp = -4.000000e+01 C
    tnom = 2.700000e+01 C
    tempeffects = all
    errpreset = moderate
    method = traponly
    lteratio = 3.500000e+00
    relref = sigglobal
    cmin = 0.000000e+00 F
    gmin = 1.000000e-12 S


Output and IC/nodeset summary:
                 nodeset        2       


Notice from spectre at time = 4.478098e-10 s during transient analysis
        `timeSweep'.
    Found trapezoidal ringing on node Vclk:p.

......9..

Notice from spectre at time = 1.419506e-08 s during transient analysis
        `timeSweep'.
    Found trapezoidal ringing on node net1.

......9...

Notice from spectre at time = 1.619508e-08 s during transient analysis
        `timeSweep'.
    Found trapezoidal ringing on node net1.

......9....

Notice from spectre at time = 1.819510e-08 s during transient analysis
        `timeSweep'.
    Found trapezoidal ringing on node net1.

......9......

Notice from spectre at time = 2.019512e-08 s during transient analysis
        `timeSweep'.
    Found trapezoidal ringing on node net1.
        Further occurrences of this notice will be suppressed.

......9......8......7......6......5......4......3......2......1......0
Number of accepted tran steps =             138

Notice from spectre during transient analysis `timeSweep'.
    Trapezoidal ringing is detected during tran analysis.
        Please use method=trap for better results and performance.


Maximum value achieved for any signal of each quantity: 
V: V(net4#5) = 1.952e+00 V
I: I(VVSS:p) = 1.185e-04 A
If your circuit contains signals of the same quantity that are vastly different
        in size (such as high voltage circuitry combined with low voltage
        control circuitry), you should consider specifying global option
        `bin_relref=yes'.

~~~~~~~~~~~~~~~~~~~~~~~~~~~~~~~~~
Post-Transient Simulation Summary
~~~~~~~~~~~~~~~~~~~~~~~~~~~~~~~~~
   -   To further speed up simulation, consider
          add ++aps on command line
~~~~~~~~~~~~~~~~~~~~~~~~~~~~~~~~~


During simulation, the CPU load for active processors is :
         0 (20.0 %)      1 (38.5 %)      2 (79.7 %)      3 (20.5 %)
         4 (19.6 %)      5 (10.9 %)      6 (22.8 %)      7 (44.4 %)
         8 (38.1 %)      9 (25.4 %)     10 (24.9 %)     11 (15.7 %)
        12 (50.7 %)     13 (15.3 %)     14 (37.5 %)     15 (28.3 %)
        16 (16.4 %)     17 (50.9 %)     18 (43.8 %)     19 (5.1 %)
        20 (21.6 %)     21 (35.5 %)     22 (25.1 %)     23 (11.9 %)
        24 (7.4 %)      25 (19.0 %)     26 (11.7 %)     27 (10.4 %)
        28 (20.5 %)     29 (90.4 %)     30 (40.5 %)     31 (13.1 %)
        32 (56.7 %)     33 (31.0 %)     34 (10.8 %)     35 (22.8 %)
        36 (8.4 %)      37 (21.9 %)     38 (23.0 %)     39 (9.0 %)
        40 (15.1 %)     41 (48.6 %)     42 (19.0 %)     43 (23.5 %)
        44 (8.3 %)      45 (18.8 %)     46 (10.3 %)     47 (43.5 %)
        48 (11.6 %)     49 (10.0 %)     50 (21.9 %)     51 (7.9 %)
        52 (9.1 %)      53 (8.5 %)      54 (11.5 %)     55 (16.3 %)
        56 (10.9 %)     57 (14.7 %)     58 (12.2 %)     59 (12.4 %)
        60 (50.4 %)     61 (46.3 %)     62 (14.3 %)     63 (5.6 %)
        64 (24.3 %)     65 (20.9 %)     66 (29.3 %)     67 (5.6 %)
        68 (17.9 %)     69 (67.5 %)     70 (15.5 %)     71 (8.5 %)
        72 (51.8 %)     73 (7.0 %)      74 (8.5 %)      75 (14.3 %)
        76 (14.2 %)     77 (12.7 %)     78 (17.0 %)     79 (23.1 %)
        80 (18.6 %)     81 (19.0 %)     82 (29.6 %)     83 (27.2 %)
        84 (8.8 %)      85 (31.6 %)     86 (29.7 %)     87 (14.4 %)
        88 (8.1 %)      89 (39.5 %)     90 (13.2 %)     91 (27.4 %)
        92 (10.9 %)     93 (11.9 %)     94 (54.2 %)     95 (59.5 %)
        Total: 2291.1%
Initial condition solution time: CPU = 0.000000e+00 s, elapsed = 0.000000e+00
        s.
Intrinsic tran analysis time:    CPU = 1.232100e-02 s, elapsed = 1.240015e-02
        s.
Total time required for tran analysis `timeSweep': CPU = 1.262700e-02 s,
        elapsed = 1.270294e-02 s.
Time accumulated: CPU = 7.451790e-01 s, elapsed = 1.186192e+01 s.
Peak resident memory used = 1.17e+08 bytes.


Notice from spectre.
    40 notices suppressed.


*************************************************************************
Transient Analysis `timeSweep': time = (0.000000e+00 s -> 1.000010e-07 s)
*************************************************************************

Notice from spectre during transient analysis `timeSweep'.
    There are 177 IC nodes defined.

Important parameter values:
    start = 0.000000e+00 s
    outputstart = 0.000000e+00 s
    stop = 1.000010e-07 s
    step = 1.000000e-12 s
    maxstep = 2.000020e-09 s
    ic = all
    useprevic = no
    skipdc = useprevic
    reltol = 1.000000e-03
    abstol(V) = 1.000000e-06 V
    abstol(I) = 1.000000e-12 A
    temp = -4.000000e+01 C
    tnom = 2.700000e+01 C
    tempeffects = all
    errpreset = moderate
    method = traponly
    lteratio = 3.500000e+00
    relref = sigglobal
    cmin = 0.000000e+00 F
    gmin = 1.000000e-12 S


Output and IC/nodeset summary:
                 nodeset        2       


Notice from spectre at time = 4.479319e-10 s during transient analysis
        `timeSweep'.
    Found trapezoidal ringing on node Vclk:p.

......9......

Notice from spectre at time = 2.000301e-08 s during transient analysis
        `timeSweep'.
    Found trapezoidal ringing on node net1.

......9......8

Notice from spectre at time = 2.200303e-08 s during transient analysis
        `timeSweep'.
    Found trapezoidal ringing on node net1.

......9......8.

Notice from spectre at time = 2.400305e-08 s during transient analysis
        `timeSweep'.
    Found trapezoidal ringing on node net1.

......9......8...

Notice from spectre at time = 2.600307e-08 s during transient analysis
        `timeSweep'.
    Found trapezoidal ringing on node net1.
        Further occurrences of this notice will be suppressed.

......9......8......7......6......5......4......3......2......1......0
Number of accepted tran steps =             136

Notice from spectre during transient analysis `timeSweep'.
    Trapezoidal ringing is detected during tran analysis.
        Please use method=trap for better results and performance.


Maximum value achieved for any signal of each quantity: 
V: V(net4#5) = 1.952e+00 V
I: I(VVSS:p) = 1.494e-04 A
If your circuit contains signals of the same quantity that are vastly different
        in size (such as high voltage circuitry combined with low voltage
        control circuitry), you should consider specifying global option
        `bin_relref=yes'.

~~~~~~~~~~~~~~~~~~~~~~~~~~~~~~~~~
Post-Transient Simulation Summary
~~~~~~~~~~~~~~~~~~~~~~~~~~~~~~~~~
   -   To further speed up simulation, consider
          add ++aps on command line
~~~~~~~~~~~~~~~~~~~~~~~~~~~~~~~~~


During simulation, the CPU load for active processors is :
         0 (20.0 %)      1 (38.4 %)      2 (79.7 %)      3 (20.5 %)
         4 (19.6 %)      5 (10.9 %)      6 (22.9 %)      7 (44.3 %)
         8 (38.0 %)      9 (25.3 %)     10 (24.8 %)     11 (15.7 %)
        12 (50.6 %)     13 (15.2 %)     14 (37.6 %)     15 (28.2 %)
        16 (16.4 %)     17 (50.9 %)     18 (43.8 %)     19 (5.1 %)
        20 (21.5 %)     21 (35.5 %)     22 (25.1 %)     23 (11.9 %)
        24 (7.4 %)      25 (19.0 %)     26 (11.7 %)     27 (10.4 %)
        28 (20.5 %)     29 (90.4 %)     30 (40.6 %)     31 (13.2 %)
        32 (56.6 %)     33 (31.1 %)     34 (10.9 %)     35 (22.9 %)
        36 (8.4 %)      37 (21.9 %)     38 (23.1 %)     39 (9.0 %)
        40 (15.1 %)     41 (48.6 %)     42 (19.1 %)     43 (23.5 %)
        44 (8.3 %)      45 (18.8 %)     46 (10.3 %)     47 (43.5 %)
        48 (11.6 %)     49 (10.0 %)     50 (21.9 %)     51 (7.9 %)
        52 (9.1 %)      53 (8.5 %)      54 (11.5 %)     55 (16.3 %)
        56 (11.0 %)     57 (14.8 %)     58 (12.1 %)     59 (12.4 %)
        60 (50.4 %)     61 (46.2 %)     62 (14.3 %)     63 (5.7 %)
        64 (24.4 %)     65 (20.9 %)     66 (29.3 %)     67 (5.6 %)
        68 (17.9 %)     69 (67.5 %)     70 (15.5 %)     71 (8.5 %)
        72 (51.8 %)     73 (7.0 %)      74 (8.5 %)      75 (14.3 %)
        76 (14.2 %)     77 (12.8 %)     78 (17.1 %)     79 (23.2 %)
        80 (18.7 %)     81 (19.0 %)     82 (29.7 %)     83 (27.2 %)
        84 (8.8 %)      85 (31.6 %)     86 (29.7 %)     87 (14.4 %)
        88 (8.1 %)      89 (39.4 %)     90 (13.2 %)     91 (27.4 %)
        92 (10.9 %)     93 (11.8 %)     94 (54.2 %)     95 (59.5 %)
        Total: 2291.5%
Initial condition solution time: CPU = 0.000000e+00 s, elapsed = 0.000000e+00
        s.
Intrinsic tran analysis time:    CPU = 1.241500e-02 s, elapsed = 1.249313e-02
        s.
Total time required for tran analysis `timeSweep': CPU = 1.271400e-02 s,
        elapsed = 1.278901e-02 s.
Time accumulated: CPU = 7.581540e-01 s, elapsed = 1.187579e+01 s.
Peak resident memory used = 1.17e+08 bytes.


Notice from spectre.
    37 notices suppressed.
